
 + + + + + + + + + + + + + + + + + + + + + + + + + + + + + + + + + + + + + + + +
 + + + + + + + + + + + + + + + + + + + + + + + + + + + + + + + + + + + + + + + +
 + +                                                                         + +
 + +                      ASPEN PLUS CALCULATION HISTORY                     + +
 + +                                                                         + +
 + + + + + + + + + + + + + + + + + + + + + + + + + + + + + + + + + + + + + + + +
 + + + + + + + + + + + + + + + + + + + + + + + + + + + + + + + + + + + + + + + +

 ASPEN PLUS IS A TRADEMARK OF           HOTLINE:
 ASPEN TECHNOLOGY, INC.                 U.S.A. 888/996-7100
 781/221-6400                           EUROPE (44) 1189-226555

 PLATFORM: WIN-X64                                       SEPTEMBER 8, 2025   
 VERSION: 41.0   Build 609                               MONDAY      
 INSTALLATION:                                           3:19:13 P.M.        

 THIS COPY OF ASPEN PLUS LICENSED TO UNIVERSITY OF SEOUL             


      ASPEN PLUS (R) IS A PROPRIETARY PRODUCT OF ASPEN TECHNOLOGY, INC.
      (ASPENTECH), AND MAY BE USED ONLY UNDER AGREEMENT WITH ASPENTECH.
      RESTRICTED RIGHTS LEGEND:  USE, REPRODUCTION, OR DISCLOSURE BY THE
      U.S. GOVERNMENT IS SUBJECT TO RESTRICTIONS SET FORTH IN 
      (i) FAR 52.227-14, Alt. III, (ii) FAR 52.227-19, (iii) DFARS 
      252.227-7013(c)(1)(ii), or (iv) THE ACCOMPANYING LICENSE AGREEMENT,
      AS APPLICABLE. FOR PURPOSES OF THE FAR, THIS SOFTWARE SHALL BE DEEMED
      TO BE "UNPUBLISHED" AND LICENSED WITH DISCLOSURE PROHIBITIONS.
      CONTRACTOR/SUBCONTRACTOR: ASPEN TECHNOLOGY, INC. 20 CROSBY DRIVE,
      BEDFORD, MA 01730.
 *** INPUT SUMMARY ***

 >>CURRENT RUN

   ORIGINAL RUN                           SEPTEMBER 8, 2025   
   3:19:13 P.M.                           MONDAY      
   INPUT FILE: _1826txb.inm
   RUN ID : _1826txb
          1    ;
          2    ;Input file created by Aspen Plus Rel. 41.0 at 15:19:12 Mon Sep 8, 2025
          3    ;Directory C:\Users\zkjxc\Documents\API_project\API_code_develop  Runid CUMENEPLANT4
          4    ;
          5
          6
          7    DYNAMICS
          8        DYNAMICS RESULTS=ON
          9
         10    TITLE 'CUMENE PRODUCTION FROM BENZENE ALKYLATION'
         11
         12    IN-UNITS MET ENTHALPY='J/kg' ENTROPY='kJ/kmol-K' FLOW='kg/sec'  &
         13            MASS-FLOW='kg/sec' MOLE-FLOW='kmol/sec'  &
         14            VOLUME-FLOW='cum/sec' ENTHALPY-FLO=kW  &
         15            MOLE-HEAT-CA='kJ/kmol-K' HEAT-TRANS-C='kW/sqm-K'  &
         16            PRESSURE=kPa TEMPERATURE=K VOLUME=cum DELTA-T=K  &
         17            HEAD=meter MOLE-DENSITY='kmol/cum' MASS-DENSITY='kg/cum'  &
         18            MOLE-ENTHALP='kJ/mol' MASS-ENTHALP='kJ/kg'  &
         19            MOLE-ENTROPY='kJ/mol-K' MASS-ENTROPY='kJ/kg-K'  &
         20            MASS-HEAT-CA='kJ/kg-K' UA='kJ/sec-K' HEAT=kJ  &
         21            MOLE-CONC='mol/l' PDROP-PER-HT='mbar/m' PDROP=kPa  &
         22            VOL-HEAT-CAP='kJ/cum-K' HEAT-FLUX='J/sec-m'  &
         23            VOL-ENTHALPY='kJ/cum'
         24
         25    DEF-STREAMS CONVEN ALL
         26
         27    SIM-OPTIONS MASS-BAL-CHE=YES PARADIGM=SM CARBON-FEE=.0500000000  &
         28            FLASH-TOLFAC=1.0
         29
         30    MODEL-OPTION
         31
         32    DATABANKS 'APV150 PURE28' / 'APV150 SOLIDS' / 'APV150 AQUEOUS' &
         33             / 'APV150 INORGANIC' / NOASPENPCD
         34
         35    PROP-SOURCES 'APV150 PURE28' / 'APV150 SOLIDS' /  &
         36            'APV150 AQUEOUS' / 'APV150 INORGANIC'
         37
         38    COMPONENTS
         39        BENZENE C6H6 /
         40        PROPYLEN C3H6-2 /
         41        CUMENE C9H12-2 /
         42        P-DII-01 C12H18-D2 /
         43        PROPANE C3H8 /
         44        WATER H2O
         45
         46    FORMULA PROPYLEN C3H6-2 / CUMENE C9H12-2
         47
         48    SOLVE
         49        RUN-MODE MODE=SIM
         50
         51    FLOWSHEET
         52        BLOCK RT1 IN=HOTFEED BFW OUT=REAC-OUT STM
         53        BLOCK E03 IN=WARMFEED OUT=HOTFEED
         54        BLOCK M-1 IN=4 13 OUT=COLDFEED
         55        BLOCK C-1 IN=COOL-OUT OUT=FG HEAVYS
         56        BLOCK C-2 IN=CUMFEED OUT=C6RYCLE 1 REBSTRM CNDVAP
         57        BLOCK C-3 IN=1 OUT=CUMENE DIPB
         58        BLOCK E05 IN=2 12 OUT=3 WARMC3
         59        BLOCK M-2 IN=WARMC3 10 OUT=WARMFEED
         60        BLOCK E04 IN=REAC-OUT 15 OUT=2 10
         61        BLOCK P-3 IN=C6RYCLE OUT=4
         62        BLOCK V1 IN=FG OUT=FGTOFUEL
         63        BLOCK P-1 IN=PROPENE OUT=12
         64        BLOCK P-2 IN=BENZENE OUT=13
         65        BLOCK E01 IN=3 REBSTRM OUT=11 REBRTN
         66        BLOCK E02 IN=HEAVYS COLDFEED OUT=14 15
         67        BLOCK E06 IN=CNDVAP OUT=CNDLIQ
         68        BLOCK E07 IN=14 OUT=CUMFEED
         69        BLOCK E08 IN=11 OUT=COOL-OUT
         70
         71    PROPERTIES SRK FREE-WATER=STEAMNBS
         72        PROPERTIES NRTL
         73
         74    PROP-REPLACE STEAMNBS STEAM-TA
         75
         76    ESTIMATE ALL
         77        IN-UNITS MET VOLUME-FLOW='cum/hr' ENTHALPY-FLO='MMkcal/hr'  &
         78            HEAT-TRANS-C='kcal/hr-sqm-K' PRESSURE='kg/sqcm'  &
         79            TEMPERATURE=C VOLUME=cum DELTA-T=C HEAD=meter  &
         80            MOLE-ENTHALP='kcal/mol' MASS-ENTHALP='kcal/kg' HEAT=MMkcal  &
         81            MOLE-CONC='mol/l' PDROP-PER-HT='mbar/m' PDROP='kg/sqcm'
         82
         83    PROP-DATA NRTL-1
         84        IN-UNITS MET VOLUME-FLOW='cum/hr' ENTHALPY-FLO='MMkcal/hr'  &
         85            HEAT-TRANS-C='kcal/hr-sqm-K' PRESSURE='kg/sqcm'  &
         86            TEMPERATURE=C VOLUME=cum DELTA-T=C HEAD=meter  &
         87            MOLE-ENTHALP='kcal/mol' MASS-ENTHALP='kcal/kg' HEAT=MMkcal  &
         88            MOLE-CONC='mol/l' PDROP-PER-HT='mbar/m' PDROP='kg/sqcm'
         89        PROP-LIST NRTL
         90        BPVAL BENZENE PROPYLEN 0.0 151.4452000 .3000000000 0.0 0.0  &
         91            0.0 25.00000000 25.00000000
         92        BPVAL PROPYLEN BENZENE 0.0 -3.794700000 .3000000000 0.0  &
         93            0.0 0.0 25.00000000 25.00000000
         94        BPVAL BENZENE CUMENE 0.0 54.48020000 .3000000000 0.0 0.0  &
         95            0.0 81.60000000 136.4000000
         96        BPVAL CUMENE BENZENE 0.0 -44.66900000 .3000000000 0.0 0.0  &
         97            0.0 81.60000000 136.4000000
         98        BPVAL BENZENE WATER 45.19050000 591.3676000 .2000000000 0.0  &
         99            -7.562900000 0.0 .8000000000 77.00000000
        100        BPVAL WATER BENZENE 140.0874000 -5954.307100 .2000000000  &
        101            0.0 -20.02540000 0.0 .8000000000 77.00000000
        102        BPVAL CUMENE WATER -1.943500000 1983.777700 .2000000000 0.0  &
        103            0.0 0.0 0.0 50.00000000
        104        BPVAL WATER CUMENE 24.66120000 -4480.953100 .2000000000 0.0  &
        105            0.0 0.0 0.0 50.00000000
        106
        107    PROP-DATA SRKKIJ-1
        108        IN-UNITS ENG SHORT-LENGTH=in
        109        PROP-LIST SRKKIJ
        110        BPVAL BENZENE PROPYLEN -6.1090275E-3 0.0 0.0 77.00000000  &
        111            77.00000000
        112        BPVAL PROPYLEN BENZENE -6.1090275E-3 0.0 0.0 77.00000000  &
        113            77.00000000
        114        BPVAL BENZENE CUMENE -7.0569667E-3 0.0 0.0 77.00000000  &
        115            77.00000000
        116        BPVAL CUMENE BENZENE -7.0569667E-3 0.0 0.0 77.00000000  &
        117            77.00000000
        118        BPVAL BENZENE P-DII-01 -.0220101312 0.0 0.0 77.00000000  &
        119            77.00000000
        120        BPVAL P-DII-01 BENZENE -.0220101312 0.0 0.0 77.00000000  &
        121            77.00000000
        122        BPVAL BENZENE PROPANE 2.64843479E-3 0.0 0.0 77.00000000  &
        123            77.00000000
        124        BPVAL PROPANE BENZENE 2.64843479E-3 0.0 0.0 77.00000000  &
        125            77.00000000
        126        BPVAL BENZENE WATER -.1384728740 0.0 0.0 77.00000000  &
        127            77.00000000
        128        BPVAL WATER BENZENE -.1384728740 0.0 0.0 77.00000000  &
        129            77.00000000
        130        BPVAL PROPYLEN CUMENE -.0295437440 0.0 0.0 77.00000000  &
        131            77.00000000
        132        BPVAL CUMENE PROPYLEN -.0295437440 0.0 0.0 77.00000000  &
        133            77.00000000
        134        BPVAL PROPYLEN P-DII-01 -.0525358407 0.0 0.0 77.00000000  &
        135            77.00000000
        136        BPVAL P-DII-01 PROPYLEN -.0525358407 0.0 0.0 77.00000000  &
        137            77.00000000
        138        BPVAL PROPYLEN PROPANE .0177038915 0.0 0.0 77.00000000  &
        139            77.00000000
        140        BPVAL PROPANE PROPYLEN .0177038915 0.0 0.0 77.00000000  &
        141            77.00000000
        142        BPVAL PROPYLEN WATER -.3047459640 0.0 0.0 77.00000000  &
        143            77.00000000
        144        BPVAL WATER PROPYLEN -.3047459640 0.0 0.0 77.00000000  &
        145            77.00000000
        146        BPVAL CUMENE P-DII-01 -3.6406228E-3 0.0 0.0 77.00000000  &
        147            77.00000000
        148        BPVAL P-DII-01 CUMENE -3.6406228E-3 0.0 0.0 77.00000000  &
        149            77.00000000
        150        BPVAL CUMENE PROPANE -.0198809057 0.0 0.0 77.00000000  &
        151            77.00000000
        152        BPVAL PROPANE CUMENE -.0198809057 0.0 0.0 77.00000000  &
        153            77.00000000
        154        BPVAL CUMENE WATER .3102292470 0.0 0.0 77.00000000  &
        155            77.00000000
        156        BPVAL WATER CUMENE .3102292470 0.0 0.0 77.00000000  &
        157            77.00000000
        158        BPVAL P-DII-01 PROPANE -.0412353881 0.0 0.0 77.00000000  &
        159            77.00000000
        160        BPVAL PROPANE P-DII-01 -.0412353881 0.0 0.0 77.00000000  &
        161            77.00000000
        162        BPVAL P-DII-01 WATER .3175110710 0.0 0.0 77.00000000  &
        163            77.00000000
        164        BPVAL WATER P-DII-01 .3175110710 0.0 0.0 77.00000000  &
        165            77.00000000
        166        BPVAL PROPANE WATER -.3435254840 0.0 0.0 77.00000000  &
        167            77.00000000
        168        BPVAL WATER PROPANE -.3435254840 0.0 0.0 77.00000000  &
        169            77.00000000
        170
        171    STREAM 3
        172        SUBSTREAM MIXED TEMP=529.5984470 PRES=2451.662500
        173        MOLE-FLOW BENZENE .1572835792 / PROPYLEN 2.11088666E-4 /  &
        174            CUMENE .0274688568 / P-DII-01 7.19603714E-5 / PROPANE  &
        175            1.78557468E-3
        176
        177    STREAM BENZENE
        178        SUBSTREAM MIXED TEMP=298.1500000 PRES=101.3249997  &
        179            MOLE-FLOW=.0277777777
        180        MOLE-FRAC BENZENE 1
        181
        182    STREAM BFW
        183        SUBSTREAM MIXED TEMP=393.1500000 PRES=980.6650000  &
        184            MASS-FLOW=.3253000000
        185        MOLE-FRAC WATER 1
        186
        187    STREAM PROPENE
        188        SUBSTREAM MIXED TEMP=298.1500000 PRES=1200.000000  &
        189            MOLE-FLOW=.0292388888
        190        MOLE-FRAC PROPYLEN 0.95 / PROPANE 0.05
        191
        192    STREAM WARMFEED
        193        SUBSTREAM MIXED TEMP=478.8026450 PRES=2451.662500
        194        MOLE-FLOW BENZENE .1848094097 / PROPYLEN .0278088797 /  &
        195            CUMENE 1.49864620E-5 / P-DII-01 2.2438253E-12 /  &
        196            PROPANE 1.78557468E-3
        197
        198    BLOCK M-1 MIXER
        199        PARAM
        200
        201    BLOCK M-2 MIXER
        202        PARAM
        203        BLOCK-OPTION FLASH-METHOD=GIBBS
        204
        205    BLOCK E03 HEATER
        206        PARAM TEMP=623.1500000 PRES=0.0 DPPARMOPT=NO
        207        UTILITY UTILITY-ID=FUEL
        208
        209    BLOCK E01 HEATX
        210        PARAM DUTY=8.74 <MW> CALC-TYPE=DESIGN PRES-COLD=0.  &
        211            U-OPTION=PHASE F-OPTION=CONSTANT CALC-METHOD=SHORTCUT
        212        FEEDS HOT=3 COLD=REBSTRM
        213        OUTLETS-HOT 11
        214        OUTLETS-COLD REBRTN
        215        HOT-SIDE DP-OPTION=CONSTANT DPPARMOPT=NO
        216        COLD-SIDE DP-OPTION=CONSTANT DPPARMOPT=NO
        217        TQ-PARAM CURVE=YES
        218
        219    BLOCK E02 HEATX
        220        PARAM DUTY=3.02 <MW> CALC-TYPE=DESIGN U-OPTION=PHASE  &
        221            F-OPTION=CONSTANT CALC-METHOD=SHORTCUT
        222        FEEDS HOT=HEAVYS COLD=COLDFEED
        223        OUTLETS-HOT 14
        224        OUTLETS-COLD 15
        225        HOT-SIDE DP-OPTION=CONSTANT DPPARMOPT=NO
        226        COLD-SIDE DP-OPTION=CONSTANT DPPARMOPT=NO
        227        TQ-PARAM CURVE=YES
        228
        229    BLOCK E04 HEATX
        230        PARAM DUTY=1.632 <MW> CALC-TYPE=DESIGN  &
        231            MIN-TAPP=10.00000000 U-OPTION=PHASE F-OPTION=CONSTANT  &
        232            CALC-METHOD=SHORTCUT
        233        FEEDS HOT=REAC-OUT COLD=15
        234        OUTLETS-HOT 2
        235        OUTLETS-COLD 10
        236        FLASH-SPECS 2 NPHASE=2 FREE-WATER=NO
        237        HOT-SIDE DP-OPTION=CONSTANT DPPARMOPT=NO
        238        COLD-SIDE DP-OPTION=CONSTANT DPPARMOPT=NO
        239        TQ-PARAM CURVE=YES
        240
        241    BLOCK E05 HEATX
        242        PARAM DUTY=0.8 <MMkcal/hr> CALC-TYPE=DESIGN  &
        243            MIN-TAPP=10.00000000 U-OPTION=PHASE F-OPTION=CONSTANT  &
        244            CALC-METHOD=SHORTCUT
        245        FEEDS HOT=2 COLD=12
        246        OUTLETS-HOT 3
        247        OUTLETS-COLD WARMC3
        248        FLASH-SPECS 3 NPHASE=2 FREE-WATER=NO
        249        HOT-SIDE DP-OPTION=CONSTANT DPPARMOPT=NO
        250        COLD-SIDE DP-OPTION=CONSTANT DPPARMOPT=NO
        251        TQ-PARAM CURVE=YES
        252        BLOCK-OPTION FLASH-METHOD=INSIDE-OUT
        253
        254    BLOCK E06 HEATX
        255        PARAM VFRAC-HOT=0. CALC-TYPE=DESIGN PRES-HOT=175.0000000  &
        256            U-OPTION=PHASE F-OPTION=CONSTANT CALC-METHOD=SHORTCUT
        257        FEEDS HOT=CNDVAP
        258        OUTLETS-HOT CNDLIQ
        259        HOT-SIDE DP-OPTION=CONSTANT DPPARMOPT=NO
        260        COLD-SIDE DP-OPTION=CONSTANT DPPARMOPT=NO
        261        TQ-PARAM CURVE=YES
        262        REFERENCE COLD-UTIL=CW
        263
        264    BLOCK E07 HEATX
        265        PARAM T-HOT=90. <C> CALC-TYPE=DESIGN PRES-HOT=245.1662500  &
        266            U-OPTION=PHASE F-OPTION=CONSTANT CALC-METHOD=SHORTCUT
        267        FEEDS HOT=14
        268        OUTLETS-HOT CUMFEED
        269        HOT-SIDE DP-OPTION=CONSTANT DPPARMOPT=NO
        270        COLD-SIDE DP-OPTION=CONSTANT DPPARMOPT=NO
        271        TQ-PARAM CURVE=YES
        272        REFERENCE COLD-UTIL=CW
        273
        274    BLOCK E08 HEATX
        275        PARAM T-HOT=150. <C> CALC-TYPE=DESIGN  &
        276            PRES-HOT=2000.000000 U-OPTION=PHASE F-OPTION=CONSTANT  &
        277            CALC-METHOD=SHORTCUT
        278        FEEDS HOT=11
        279        OUTLETS-HOT COOL-OUT
        280        HOT-SIDE DP-OPTION=CONSTANT DPPARMOPT=NO
        281        COLD-SIDE DP-OPTION=CONSTANT DPPARMOPT=NO
        282        TQ-PARAM CURVE=YES
        283        REFERENCE COLD-UTIL=LPSTMGEN
        284
        285    BLOCK C-1 RADFRAC
        286        PARAM NSTAGE=16 ALGORITHM=STANDARD MAXOL=25 DAMPING=NONE
        287        PARAM2
        288        COL-CONFIG CONDENSER=PARTIAL-V
        289        FEEDS COOL-OUT 5
        290        PRODUCTS FG 1 V / HEAVYS 16 L
        291        P-SPEC 1 1200.000000 / 2 1210.000000
        292        COL-SPECS DP-STAGE=0.0 MOLE-RR=4.12794786 MOLE-BR=0.380352759
        293        SPEC 1 MASS-FRAC 0.001 COMPS=BENZENE STREAMS=FG  &
        294            SPEC-DESCRIP="FGC6"
        295        SPEC 2 MASS-FRAC 0.001 COMPS=PROPANE PROPYLEN  &
        296            STREAMS=HEAVYS SPEC-DESCRIP="C3BTM"
        297        VARY 1 MOLE-RR 0. 10.
        298        VARY 2 MOLE-BR 0.1 2.
        299        BLOCK-OPTION FLASH-METHOD=GIBBS
        300        UTILITIES COND-UTIL=CW REB-UTIL=HPSTM
        301
        302    BLOCK C-2 RADFRAC
        303        PARAM NSTAGE=20 ALGORITHM=STANDARD MAXOL=25 DAMPING=NONE
        304        PARAM2
        305        COL-CONFIG CONDENSER=TOTAL
        306        FEEDS CUMFEED 6 ABOVE-STAGE
        307        PRODUCTS C6RYCLE 1 L / 1 20 L
        308        PSEUDO-STREA REBSTRM 19 / CNDVAP 2 PHASE=V
        309        P-SPEC 1 175.0000000 / 2 185.0000000
        310        COL-SPECS D:F=0.85 DP-COL=20.00000000 MOLE-RR=0.66
        311        T-EST 1 370.2647694 / 2 374.3057220 / 3 374.6437290 /  &
        312            4 375.1433690 / 5 376.2540040 / 6 379.0178050 / 7  &
        313            379.2902170 / 8 379.5136550 / 9 379.7338770 / 10  &
        314            379.9531560 / 11 380.1723670 / 12 380.3963230 / 13  &
        315            380.6551350 / 14 381.1355940 / 15 382.9359000
        316        L-EST 1 .1038854419 / 2 .1055459156 / 3 .1051876778 /  &
        317            4 .1041452344 / 5 .1012889661 / 6 .3034974694 / 7  &
        318            .3037296444 / 8 .3038937000 / 9 .3040539639 / 10  &
        319            .3042125972 / 11 .3043642667 / 12 .3044745944 / 13  &
        320            .3043298667 / 14 .3026689333 / 15 .2937697750
        321        V-EST 1 0.0 / 2 .2612876267 / 3 .2629481003 / 4  &
        322            .2625898625 / 5 .2615474192 / 6 .2586911508 / 7  &
        323            .2757206133 / 8 .2759527869 / 9 .2761168428 / 10  &
        324            .2762771075 / 11 .2764357397 / 12 .2765874094 / 13  &
        325            .2766977392 / 14 .2765530100 / 15 .2748920772
        326        UTILITIES COND-UTIL=CW REB-UTIL=HPSTM
        327
        328    BLOCK C-3 RADFRAC
        329        PARAM NSTAGE=30 ALGORITHM=STANDARD MAXOL=25 DAMPING=NONE
        330        PARAM2
        331        COL-CONFIG CONDENSER=TOTAL
        332        FEEDS 1 15
        333        PRODUCTS CUMENE 1 L / DIPB 30 L
        334        P-SPEC 1 20.00000000 / 2 21.00000000
        335        COL-SPECS D:F=0.99 DP-STAGE=.7000000000 MOLE-RR=0.9
        336        UTILITIES COND-UTIL=CW REB-UTIL=MPSTM
        337
        338    BLOCK RT1 RPLUG
        339        PARAM TYPE=CO-COOL NTUBE=2500 LENGTH=6.000000000  &
        340            DIAM=.0763000000 NPHASE=1 PHASE=V U=.0650000000  &
        341            IGN-CAT-VOL=NO CAT-PRESENT=YES BED-VOIDAGE=0.5  &
        342            CAT-RHO=2.000000000 OPT-DIA=CONSTANT
        343        BLOCK-OPTION FREE-WATER=NO
        344        REACTIONS RXN-IDS=R-1
        345
        346    BLOCK P-1 PUMP
        347        PARAM PRES=2451.662500 EFF=0.75 DEFF=0.98 PUMP-TYPE=PUMP
        348        UTILITY UTILITY-ID=ELEC
        349
        350    BLOCK P-2 PUMP
        351        PARAM PRES=2533.125000 EFF=0.75 DEFF=0.98
        352        PERFOR-PARAM
        353        UTILITY UTILITY-ID=ELEC
        354
        355    BLOCK P-3 PUMP
        356        PARAM PRES=2533.125000
        357        UTILITY UTILITY-ID=ELEC
        358
        359    BLOCK V1 VALVE
        360        PARAM P-OUT=117.6798000
        361
        362    UTILITY CW GENERAL
        363        DESCRIPTION 'Cooling Water, Inlet Temp=20 C, Outlet Temp=25 C'
        364        COST ENERGY-PRICE=7.9549200E-10
        365        PARAM UTILITY-TYPE=WATER PRES=101.3250000  &
        366            PRES-OUT=101.3250000 TIN=288.1500000 TOUT=293.1500000  &
        367            CALOPT=FLASH MIN-TAPP=10.00000000 CALCCO2=YES  &
        368            FACTORSOURCE="US-EPA-Rule-E9-5711" FUELSOURCE="Natural_gas"  &
        369            CO2FACTOR=2.10386700E-7 HTC=3.750000000
        370
        371    UTILITY ELEC GENERAL
        372        DESCRIPTION 'Electrical Utility'
        373        COST ELEC-PRICE=.0775000000
        374        PARAM UTILITY-TYPE=ELECTRICITY CALCCO2=YES FACTORSOURCE= &
        375            "US-EPA-Rule-E9-5711" FUELSOURCE="Natural_gas"  &
        376            CO2FACTOR=2.10386700E-7 EFFICIENCY=0.58
        377
        378    UTILITY FUEL GENERAL
        379        DESCRIPTION  &
        380            'Fired Heater, Inlet Temp=1000 C, Outlet Temp=400 C'
        381        COST ENERGY-PRICE=3.17465658E-8
        382        PARAM UTILITY-TYPE=GENERAL COOLING-VALU=50000.00000  &
        383            TIN=1273.150000 TOUT=673.1500000 MIN-TAPP=25.00000000  &
        384            CALCCO2=YES FACTORSOURCE="US-EPA-Rule-E9-5711" FUELSOURCE= &
        385            "Natural_gas" CO2FACTOR=2.10386700E-7 EFFICIENCY=0.85  &
        386            HTC=.1110000000
        387
        388    UTILITY HPSTM GENERAL
        389        DESCRIPTION  &
        390            'Medium Pressure Steam, Inlet Temp=175 C, Outlet Temp=174 C, Pres=127 psia'
        391        COST PRICE=.0120000000
        392        PARAM UTILITY-TYPE=STEAM PRES=3432.327500 TIN=543.1500000  &
        393            TOUT=542.1500000 VFR-OUT=0. CALOPT=FLASH  &
        394            MIN-TAPP=10.00000000 CALCCO2=YES FACTORSOURCE= &
        395            "US-EPA-Rule-E9-5711" FUELSOURCE="Natural_gas"  &
        396            CO2FACTOR=2.10386700E-7 EFFICIENCY=0.85 HTC=6.000000000
        397
        398    UTILITY LPSTMGEN GENERAL
        399        DESCRIPTION  &
        400            'Low Pressure Steam Generation, Inlet Temp=124 C, Outlet Temp=125 C'
        401        COST PRICE=-.0100000000
        402        PARAM UTILITY-TYPE=STEAM TIN=397.1500000 TOUT=398.1500000  &
        403            VFRAC=0. VFR-OUT=1. CALOPT=FLASH MIN-TAPP=10.00000000  &
        404            CALCCO2=YES FACTORSOURCE="US-EPA-Rule-E9-5711" FUELSOURCE= &
        405            "Natural_gas" CO2FACTOR=2.10386700E-7 EFFICIENCY=-0.85  &
        406            HTC=6.000000000
        407
        408    UTILITY MPSTM GENERAL
        409        DESCRIPTION  &
        410            'Medium Pressure Steam, Inlet Temp=175 C, Outlet Temp=174 C, Pres=127 psia'
        411        COST PRICE=.0110000000
        412        PARAM UTILITY-TYPE=STEAM TIN=448.1500000 TOUT=447.1500000  &
        413            VFRAC=1. VFR-OUT=0. CALOPT=FLASH MIN-TAPP=10.00000000  &
        414            CALCCO2=YES FACTORSOURCE="US-EPA-Rule-E9-5711" FUELSOURCE= &
        415            "Natural_gas" CO2FACTOR=2.10386700E-7 EFFICIENCY=0.85  &
        416            HTC=6.000000000
        417
        418    DESIGN-SPEC DS-1
        419        DEFINE OUTTEMP STREAM-VAR STREAM=REAC-OUT SUBSTREAM=MIXED  &
        420            VARIABLE=TEMP UOM="C"
        421        SPEC "OUTTEMP" TO "400"
        422        TOL-SPEC "1.0e-2"
        423        VARY STREAM-VAR STREAM=BFW SUBSTREAM=MIXED  &
        424            VARIABLE=MASS-FLOW UOM="kg/hr"
        425        LIMITS "0" "5000"
        426
        427    EO-CONV-OPTI
        428
        429    CALCULATOR F-1
        430        DEFINE FLOW STREAM-VAR STREAM=REAC-OUT SUBSTREAM=MIXED  &
        431            VARIABLE=MASS-FLOW UOM="lb/hr"
        432        DEFINE DENS STREAM-VAR STREAM=REAC-OUT SUBSTREAM=MIXED  &
        433            VARIABLE=MASS-DENSITY UOM="lb/cuft"
        434    F        VFLOW=FLOW/DENS
        435    F        DP=-1E-9*VFLOW**2
        436    C        WRITE(NTERM,50) FLOW, DENS, VFLOW, DP
        437    F 50     FORMAT('   FLOW=',F7.1,'    DENS=',F7.4,
        438    F    1        '    VFLOW=',F7.1,'    DP=',F7.3)
        439        READ-VARS FLOW DENS
        440
        441    SENSITIVITY S-1
        442        DEFINE CUMENE MOLE-FRAC STREAM=CUMENE SUBSTREAM=MIXED  &
        443            COMPONENT=CUMENE
        444        TABULATE 1 "CUMENE"
        445        VARY MOLE-FLOW STREAM=PROPENE SUBSTREAM=MIXED  &
        446            COMPONENT=PROPANE UOM="kmol/hr"
        447        RANGE OPT-LIST=RANGE LOWER="0" UPPER="10" INCR="1.111111"
        448
        449    SENSITIVITY S-2
        450        DEFINE CONV MOLE-FLOW STREAM=REAC-OUT SUBSTREAM=MIXED  &
        451            COMPONENT=CUMENE UOM="kmol/hr"
        452        TABULATE 1 "CONV"
        453        VARY BLOCK-VAR BLOCK=RT1 VARIABLE=NTUBE SENTENCE=PARAM
        454        RANGE OPT-LIST=RANGE LOWER="500" UPPER="1000" INCR="100"
        455
        456    CONV-OPTIONS
        457        PARAM TEAR-METHOD=BROYDEN TOL=0.0001
        458        WEGSTEIN MAXIT=100
        459        BROYDEN MAXIT=100
        460
        461    STREAM-REPOR MOLEFLOW MOLEFRAC MASSFRAC
        462
        463    PROPERTY-REP PCES NOPROP-DATA NODFMS
        464
        465    REACTIONS R-1 GENERAL
        466        REAC-DATA 1 NAME=MAIN PHASE=V RATE-UNITV="KMOL/CUM-S"
        467        REAC-DATA 2 NAME=SIDE PHASE=V RATE-UNITV="KMOL/CUM-S"
        468        RATE-CON 1 PRE-EXP=28000000. ACT-ENERGY=104.1740000
        469        RATE-CON 2 PRE-EXP=2320000000. ACT-ENERGY=146.7420000
        470        STOIC 1 MIXED BENZENE -1. / PROPYLEN -1. / CUMENE 1.
        471        STOIC 2 MIXED CUMENE -1. / PROPYLEN -1. / P-DII-01 1.
        472        DFORCE-EXP 1 MIXED BENZENE 1. / MIXED PROPYLEN 1. /  &
        473            MIXED CUMENE 0.
        474        DFORCE-EXP 2 MIXED CUMENE 1. / MIXED PROPYLEN 1. /  &
        475            MIXED P-DII-01 0.
        476
        477    PROP-TABLE PURE-1 PROPS
        478        IN-UNITS MET ENTHALPY='J/kg' ENTROPY='kJ/kmol-K'  &
        479            FLOW='kg/sec' MASS-FLOW='kg/sec' MOLE-FLOW='kmol/sec'  &
        480            VOLUME-FLOW='cum/sec' ENTHALPY-FLO=kW  &
        481            MOLE-HEAT-CA='kJ/kmol-K' HEAT-TRANS-C='kW/sqm-K'  &
        482            PRESSURE='kg/sqcm' TEMPERATURE=C VOLUME=cum DELTA-T=K  &
        483            HEAD=meter MOLE-DENSITY='kmol/cum' MASS-DENSITY='kg/cum'  &
        484            MOLE-ENTHALP='kJ/mol' MASS-ENTHALP='kJ/kg'  &
        485            MOLE-ENTROPY='kJ/mol-K' MASS-ENTROPY='kJ/kg-K'  &
        486            MASS-HEAT-CA='kJ/kg-K' UA='kJ/sec-K' HEAT=kJ  &
        487            MOLE-CONC='mol/l' PDROP-PER-HT='mbar/m' PDROP=kPa  &
        488            VOL-HEAT-CAP='kJ/cum-K' HEAT-FLUX='J/sec-m'  &
        489            VOL-ENTHALPY='kJ/cum'
        490        ANALYSIS ANAL-TYPE=PURE PURE-PROP='FUG' PURE-PHASES= V
        491        MOLE-FLOW BENZENE 1
        492        PROPERTIES SRK FREE-WATER=STEAMNBS SOLU-WATER=3  &
        493            TRUE-COMPS=YES
        494        VARY TEMP
        495        RANGE VARVALUE=RANGE LOWER=0 UPPER=100.0000000 NPOINT=50
        496        VARY PRES
        497        RANGE LIST=1.033227453
        498        PARAM
        499
        500    DISABLE
        501        SENSITIVITY S-1 S-2
        502        CALCULATOR F-1
        503    ;
        504    ;
        505    ;
        506    ;
        507    ;
 *** INPUT TRANSLATOR MESSAGES ***

      SQLLOCALDB.APESV150 : (DATAVERSION - 41.0.0.10)                         
      SQLLOCALDB.APV150 : (DATAVERSION - 41.0.0.9)                            
      SQLLOCALDB.FACTV150 : (DATAVERSION - 41.0.0.6)                          
      SQLLOCALDB.NISTV150 : (DATAVERSION - 41.0.0.7)                          
  *** THIS RUN USES THE PROPERTIES ENTERPRISE DATABASE ***

      INFORMATION IN PHYSICAL PROPERTY SYSTEM                  (PCERTE.10)      
      STRUCTURE FOR COMPONENT BENZENE HAS NOT BEEN DEFINED.                     
      PCES CANNOT USE GROUP-CONTRIBUTION METHODS TO ESTIMATE MISSING PROPERTIES.

      INFORMATION IN PHYSICAL PROPERTY SYSTEM                  (PCERTE.10)      
      STRUCTURE FOR COMPONENT PROPYLEN HAS NOT BEEN DEFINED.                    
      PCES CANNOT USE GROUP-CONTRIBUTION METHODS TO ESTIMATE MISSING PROPERTIES.

      INFORMATION IN PHYSICAL PROPERTY SYSTEM                  (PCERTE.10)      
      STRUCTURE FOR COMPONENT CUMENE HAS NOT BEEN DEFINED.                      
      PCES CANNOT USE GROUP-CONTRIBUTION METHODS TO ESTIMATE MISSING PROPERTIES.

      INFORMATION IN PHYSICAL PROPERTY SYSTEM                  (PCERTE.10)      
      STRUCTURE FOR COMPONENT P-DII-01 HAS NOT BEEN DEFINED.                    
      PCES CANNOT USE GROUP-CONTRIBUTION METHODS TO ESTIMATE MISSING PROPERTIES.

      INFORMATION IN PHYSICAL PROPERTY SYSTEM                  (PCERTE.10)      
      STRUCTURE FOR COMPONENT PROPANE HAS NOT BEEN DEFINED.                     
      PCES CANNOT USE GROUP-CONTRIBUTION METHODS TO ESTIMATE MISSING PROPERTIES.

      INFORMATION IN PHYSICAL PROPERTY SYSTEM                  (PCERTE.10)      
      STRUCTURE FOR COMPONENT WATER HAS NOT BEEN DEFINED.                       
      PCES CANNOT USE GROUP-CONTRIBUTION METHODS TO ESTIMATE MISSING PROPERTIES.


 
 DESIGN SPEC: DS-1 WILL BE INTERPRETED 
 CALCULATOR BLOCK: F-1 WILL BE INTERPRETED 
 SENSITIVITY BLOCK: S-1 WILL BE INTERPRETED 
 SENSITIVITY BLOCK: S-2 WILL BE INTERPRETED 
 

 PDF updated                                                                      TIME =      2.35

 *** CALCULATION TRACE ***

 CUMENE PRODUCTION FROM BENZENE ALKYLATION                       

 *** FLOWSHEET ANALYSIS MESSAGES ***

 FLOWSHEET CONNECTIVITY BY STREAMS       

   STREAM     SOURCE     DEST           STREAM     SOURCE     DEST
   BFW        ----       RT1            PROPENE    ----       P-1     
   BENZENE    ----       P-2            REAC-OUT   RT1        E04     
   STM        RT1        ----           HOTFEED    E03        RT1     
   COLDFEED   M-1        E02            FG         C-1        V1      
   HEAVYS     C-1        E02            C6RYCLE    C-2        P-3     
   1          C-2        C-3            REBSTRM    C-2        E01     
   CNDVAP     C-2        E06            CUMENE     C-3        ----    
   DIPB       C-3        ----           3          E05        E01     
   WARMC3     E05        M-2            WARMFEED   M-2        E03     
   2          E04        E05            10         E04        M-2     
   4          P-3        M-1            FGTOFUEL   V1         ----    
   12         P-1        E05            13         P-2        M-1     
   11         E01        E08            REBRTN     E01        ----    
   14         E02        E07            15         E02        E04     
   CNDLIQ     E06        ----           CUMFEED    E07        C-2     
   COOL-OUT   E08        C-1                                          

 FLOWSHEET CONNECTIVITY BY BLOCKS        

   BLOCK        INLETS                         OUTLETS
   RT1          HOTFEED BFW                    REAC-OUT STM                
   E03          WARMFEED                       HOTFEED                     
   M-1          4 13                           COLDFEED                    
   C-1          COOL-OUT                       FG HEAVYS                   
   C-2          CUMFEED                        C6RYCLE 1 REBSTRM CNDVAP    
   C-3          1                              CUMENE DIPB                 
   E05          2 12                           3 WARMC3                    
   M-2          WARMC3 10                      WARMFEED                    
   E04          REAC-OUT 15                    2 10                        
   P-3          C6RYCLE                        4                           
   V1           FG                             FGTOFUEL                    
   P-1          PROPENE                        12                          
   P-2          BENZENE                        13                          
   E01          3 REBSTRM                      11 REBRTN                   
   E02          HEAVYS COLDFEED                14 15                       
   E06          CNDVAP                         CNDLIQ                      
   E07          14                             CUMFEED                     
   E08          11                             COOL-OUT                    

      BLOCK $OLVER01 (METHOD: BROYDEN ) HAS BEEN DEFINED TO CONVERGE
               STREAMS: 3         WARMFEED  14

      BLOCK $OLVER02 (METHOD: SECANT  ) HAS BEEN DEFINED TO CONVERGE
                SPECS : DS-1

      COMPUTATION ORDER FOR THE FLOWSHEET IS:
      LPSTMGEN ELEC MPSTM HPSTM CW FUEL P-1 P-2 
      $OLVER01 E03 
      |  $OLVER02 RT1 
      |  (RETURN $OLVER02) 
      |  E07 C-2 P-3 M-1 E01 E08 C-1 E02 E04 E05 M-2 
      (RETURN $OLVER01) 
      V1 C-3 E06 

Calculations begin                                                              time      0.23


 SIMULATION CALCULATIONS BEGIN                                                    TIME =      0.23

      UTILITY BLOCK LPSTMGEN MODEL: GENERAL                                       TIME =      0.23
      KODE = 5  NTRIAL =   2  T = 397.1500  P =  225121.      V =  0.00000      Q =  0.00000    
      KODE = 5  NTRIAL =   2  T = 398.1500  P =  232179.      V =  1.00000      Q =  0.00000    
      HEATING/COOLING VALUE    -2.191879D+06 J/KG

      UTILITY BLOCK ELEC     MODEL: GENERAL                                       TIME =      0.24

      UTILITY BLOCK MPSTM    MODEL: GENERAL                                       TIME =      0.24
      KODE = 5  NTRIAL =   3  T = 448.1500  P =  892540.      V =  1.00000      Q =  0.00000    
      KODE = 5  NTRIAL =   3  T = 447.1500  P =  871696.      V =  0.00000      Q =  0.00000    
      HEATING/COOLING VALUE     2.034752D+06 J/KG

      UTILITY BLOCK HPSTM    MODEL: GENERAL                                       TIME =      0.24
      KODE = 2  NTRIAL =   1  T = 543.1500  P = 3.432328E+06  V =  1.00000      Q =  0.00000    
      KODE = 3  NTRIAL =   4  T = 514.6002  P = 3.432328E+06  V =  1.00000      Q =-1.684545E+06
      KODE = 5  NTRIAL =   5  T = 542.1500  P = 5.416804E+06  V =  0.00000      Q =  0.00000    
      HEATING/COOLING VALUE     1.715212D+06 J/KG

      UTILITY BLOCK CW       MODEL: GENERAL                                       TIME =      0.24
      KODE = 2  NTRIAL =   1  T = 288.1500  P =  101325.      V =  0.00000      Q =  0.00000    
      KODE = 3  NTRIAL =   4  T = 373.1407  P =  101325.      V =  0.00000      Q = 6.403304E+06
      KODE = 2  NTRIAL =   1  T = 293.1500  P =  101325.      V =  0.00000      Q =  0.00000    
      KODE = 3  NTRIAL =   4  T = 373.1407  P =  101325.      V =  0.00000      Q = 6.026911E+06
      HEATING/COOLING VALUE    -2.089303D+04 J/KG

      UTILITY BLOCK FUEL     MODEL: GENERAL                                       TIME =      0.24
      HEATING/COOLING VALUE     5.000000D+07 J/KG

      ENTHALPY CALCULATION FOR INLET STREAM PROPENE OF BLOCK P-1                  TIME =      0.24
      KODE = 2  NTRIAL =   2  T = 298.1500  P = 1.200000E+06  V =  0.00000      Q =  0.00000    

      UOS BLOCK P-1      MODEL: PUMP                                              TIME =      0.24
      VOL-FLOW   =  0.2529E-02 , DELTA P    =  0.1252E+07 , PUMP EFF   =  0.7500    
      FLUID PWR  =   3166.     , BRAKE PWR  =   4221.     , ELEC PWR   =   4307.    

      ENTHALPY CALCULATION FOR INLET STREAM BENZENE OF BLOCK P-2                  TIME =      0.24
      KODE = 2  NTRIAL =   1  T = 298.1500  P =  101325.      V =  0.00000      Q =  0.00000    

      UOS BLOCK P-2      MODEL: PUMP                                              TIME =      0.24
      VOL-FLOW   =  0.2463E-02 , DELTA P    =  0.2432E+07 , PUMP EFF   =  0.7500    
      FLUID PWR  =   5989.     , BRAKE PWR  =   7985.     , ELEC PWR   =   8148.    

      CONVERGENCE BLOCK $OLVER01  METHOD: BROYDEN                                 TIME =      0.24
      ITER   0 For Tear Streams: 3         WARMFEED  14

      ENTHALPY CALCULATION FOR INLET STREAM 3 OF BLOCK E01                        TIME =      0.25
      KODE = 2  NTRIAL =   3  T = 529.5984  P = 2.451662E+06  V = 0.973147      Q =  0.00000    

      ENTHALPY CALCULATION FOR INLET STREAM WARMFEED OF BLOCK E03                 TIME =      0.25
      KODE = 2  NTRIAL =   4  T = 478.8026  P = 2.451662E+06  V = 0.250497      Q =  0.00000    

      UOS BLOCK E03      MODEL: HEATER                                            TIME =      0.27
      KODE = 2  NTRIAL =   2  T = 623.1500  P = 2.451662E+06  V =  1.00000      Q = 7.873420E+06

      CONVERGENCE BLOCK $OLVER02  METHOD: SECANT                                  TIME =      0.27
     SPECS: DS-1

      ENTHALPY CALCULATION FOR INLET STREAM BFW OF BLOCK RT1                      TIME =      0.27
      KODE = 2  NTRIAL =   1  T = 393.1500  P =  980665.      V =  0.00000      Q =  0.00000    

      UOS BLOCK RT1      MODEL: RPLUG                                             TIME =      0.27
        AT REACTOR EXIT :
        LENGTH =   6.0000      DIAMETER =  0.76300E-01  RESIDENCE TIME =   89.789    
        PROCESS STREAM T =    673.15     P =   0.24517E+07 H =   0.22837E+08 V =    1.0000    
        COOLANT STREAM T =    673.35     P =   0.98066E+06 H =  -0.41332E+07 V =    1.0000    
        MIN T =   601.180     AT Z/LENGTH =  0.279588E-01 MAX T =   673.151     AT Z/LENGTH =   1.00000    

      CONVERGENCE BLOCK $OLVER02  METHOD: SECANT                                  TIME =      0.31
      ITER   0 For Specs:        DS-1
      SPEC   1 ERROR =  0.11479E-02                          X =  0.18057E-01

  LOOP $OLVER02 ITER    1:     *** CONVERGED *** , MAX ERR/TOL     0.11479        TIME =      0.31

      UOS BLOCK E07      MODEL: HEATX                                             TIME =      0.33
      KODE = 2  NTRIAL =   1  T = 288.1500  P =  101325.      V =  0.00000      Q =  0.00000    
      KODE = 2  NTRIAL =   1  T = 293.1500  P =  101325.      V =  0.00000      Q =  0.00000    

  *   WARNING WHILE EXECUTING UNIT OPERATIONS BLOCK: "E07" (MODEL: "HEATX")     
                                                               (UHE02I.1)       
      AT LEAST ONE FEED HAS ZERO FLOW                                           
      BLOCK BYPASSED                                                            

      UOS BLOCK C-2      MODEL: RADFRAC                                           TIME =      0.34

  *   WARNING WHILE EXECUTING UNIT OPERATIONS BLOCK: "C-2" (MODEL: "RADFRAC")   
                                                               (UDL3II.7060)    
      ZERO FEED - BLOCK BYPASSED.                                               

  *   WARNING WHILE EXECUTING UNIT OPERATIONS BLOCK: "C-2" (MODEL: "RADFRAC")   
                                                               (STUTRQ2.1)      
      DUTY NOT CALCULATED BY UOS BLOCK ,                                        
      UTILITY RATE NOT CALCULATED FOR UTILITY CW                                

  *   WARNING WHILE EXECUTING UNIT OPERATIONS BLOCK: "C-2" (MODEL: "RADFRAC")   
                                                               (STUTRQ2.1)      
      DUTY NOT CALCULATED BY UOS BLOCK ,                                        
      UTILITY RATE NOT CALCULATED FOR UTILITY HPSTM                             

      UOS BLOCK P-3      MODEL: PUMP                                              TIME =      0.34

  *   WARNING WHILE EXECUTING UNIT OPERATIONS BLOCK: "P-3" (MODEL: "PUMP")      
                                                               (UPC01I.1)       
      MIXED SUBSTREAM HAS ZERO FLOW.  BLOCK BYPASSED.                           

  *   WARNING WHILE EXECUTING UNIT OPERATIONS BLOCK: "P-3" (MODEL: "PUMP")      
                                                               (STUTRQ2.1)      
      DUTY NOT CALCULATED BY UOS BLOCK ,                                        
      UTILITY RATE NOT CALCULATED FOR UTILITY ELEC                              

      UOS BLOCK M-1      MODEL: MIXER                                             TIME =      0.34
      NO. TEMP ITER =    6     TEMP =  299.139    
      KODE = 1  NTRIAL =   2  T = 299.1385  P = 2.533125E+06  V =  0.00000      Q =  0.00000    

      UOS BLOCK E01      MODEL: HEATX                                             TIME =      0.34

  *   WARNING WHILE EXECUTING UNIT OPERATIONS BLOCK: "E01" (MODEL: "HEATX")     
                                                               (UHE02I.1)       
      AT LEAST ONE FEED HAS ZERO FLOW                                           
      BLOCK BYPASSED                                                            

      UOS BLOCK E08      MODEL: HEATX                                             TIME =      0.34
      KODE = 5  NTRIAL =   2  T = 397.1500  P =  225121.      V =  0.00000      Q =  0.00000    
      KODE = 5  NTRIAL =   2  T = 398.1500  P =  232179.      V =  1.00000      Q =  0.00000    
      SPECIFICATION: HOT OUTLET TEMP       423.15    
      FLOW TYPE:     COUNTERCURRENT  
      HOT:  TIN=  529.60  PIN=0.24517E+07   TOUT=  423.15  POUT=0.20000E+07
      COLD: TIN=  397.15  PIN=0.22512E+06   TOUT=  398.15  POUT=0.23218E+06
                              DUTY=0.74551E+07

      UOS BLOCK C-1      MODEL: RADFRAC                                           TIME =      0.34

       Convergence iterations:
         OL   ML   IL     Err/Tol
          1    1   10      5140.5    
          2    1    9      1359.0    
          3    1    9      3261.0    
          4    1   10      2416.4    
          5    1   10     0.57255E+10
          6    1   10     0.33269E+18
          7    1   10     0.45739E+17
          8    1   10     0.42992E+16
          9    1   10     0.14047E+12
         10    1   10     0.27029E+11
         11    1   10     0.12809E+18
         12    1   10      2738.1    
         13    1   10     0.88388E+18
         14    1   10      8512.8    
         15    1   10      3612.5    
         16    1   10     0.12500E+19
         17    1   10      10034.    
         18    1   10      3661.4    
         19    1   10     0.88388E+18

  *** SEVERE ERROR WHILE EXECUTING UNIT OPERATIONS BLOCK: "C-1" (MODEL:         
      "RADFRAC")                                               (UDL03.3)        
      THE FOLLOWING STAGES DRIED UP (VAPOR OR LIQUID FLOW APPROACHES 0):        
        3    4                                                                  
      A LIMIT OF  0.10000E-04 * SUM OF FEEDS WAS IMPOSED ON THE FLOW RATES      
      OR A LIMIT OF  0.10000E-04 WAS IMPOSED ON THE STAGE V/L OR L/V RATIO.     

      RESULTS FOR MANIPULATED VARIABLES:
      VARIABLE     FINAL VALUE    LOWER BOUND    UPPER BOUND
         1          4.1279         0.0000         10.000    
         2         0.38035        0.10000         2.0000    

  **  ERROR WHILE EXECUTING UNIT OPERATIONS BLOCK: "C-1" (MODEL: "RADFRAC")     
                                                               (STUTRQ2.3)      
      TEMPERATURES CROSS WITH UTILITY CW                                        
      AT CONDENSER OF RADFRAC BLOCK C-1                                         
      BLOCK TEMPERATURES       3.994972D+02 K AND     1.832274D+02 K            
      UTILITY TEMPERATURES     2.931500D+02 K AND     2.881500D+02 K            

      UOS BLOCK E02      MODEL: HEATX                                             TIME =      0.36
      SPECIFICATION: EXCHANGER DUTY       0.30200E+07
      FLOW TYPE:     COUNTERCURRENT  

  **  ERROR WHILE EXECUTING UNIT OPERATIONS BLOCK: "E02" (MODEL: "HEATX")       
                                                               (HEATX.4)        
      TEMPERATURE CROSSOVER DETECTED                                            
      RE-CALCULATING WITH MINIMUM APPROACH TEMP. SPEC                           
      HOT:  TIN=  467.88  PIN=0.12100E+07   TOUT=  448.82  POUT=0.12100E+07
      COLD: TIN=  299.14  PIN=0.25331E+07   TOUT=  466.88  POUT=0.25331E+07
                              DUTY=0.71924E+06

      UOS BLOCK E04      MODEL: HEATX                                             TIME =      0.36
      SPECIFICATION: EXCHANGER DUTY       0.16320E+07
      FLOW TYPE:     COUNTERCURRENT  

  **  ERROR WHILE EXECUTING UNIT OPERATIONS BLOCK: "E04" (MODEL: "HEATX")       
                                                               (HEATX.4)        
      TEMPERATURE CROSSOVER DETECTED                                            
      RE-CALCULATING WITH MINIMUM APPROACH TEMP. SPEC                           
      HOT:  TIN=  673.15  PIN=0.24517E+07   TOUT=  632.78  POUT=0.24517E+07
      COLD: TIN=  466.88  PIN=0.25331E+07   TOUT=  663.15  POUT=0.25331E+07
                              DUTY=0.14791E+07

      UOS BLOCK E05      MODEL: HEATX                                             TIME =      0.36
      SPECIFICATION: EXCHANGER DUTY       0.93040E+06
      FLOW TYPE:     COUNTERCURRENT  
      HOT:  TIN=  632.78  PIN=0.24517E+07   TOUT=  606.87  POUT=0.24517E+07
      COLD: TIN=  299.72  PIN=0.24517E+07   TOUT=  511.36  POUT=0.24517E+07
                              DUTY=0.93040E+06

      UOS BLOCK M-2      MODEL: MIXER                                             TIME =      0.36
      T-LOOP CONVERGED IN  11 ITERATIONS.  T =  602.3291
      KODE = 1  NTRIAL =   1  T = 602.3291  P = 2.451662E+06  V =  1.00000      Q =-1.236210E-04

      CONVERGENCE BLOCK $OLVER01  METHOD: BROYDEN                                 TIME =      0.37
      ITER   1 For Tear Streams: 3         WARMFEED  14

      --FLASH TEAR STREAM 3       
      NO. TEMP ITER =    5     TEMP =  606.868    
      KODE = 1  NTRIAL =   4  T = 606.8679  P = 2.451662E+06  V =  1.00000      Q =  0.00000    

      --FLASH TEAR STREAM WARMFEED
      T-LOOP CONVERGED IN   1 ITERATIONS.  T =  602.3291
      KODE = 1  NTRIAL =   8  T = 602.3291  P = 2.451662E+06  V =  1.00000      Q = -1.37627    

      --FLASH TEAR STREAM 14      
      NO. TEMP ITER =    5     TEMP =  448.818    
      KODE = 1  NTRIAL =   3  T = 448.8176  P = 1.210000E+06  V =  0.00000      Q =  0.00000    

  LOOP $OLVER01 ITER    1:  13 VARS NOT CONVERGED, MAX ERR/TOL     0.10000E+07    TIME =      0.37

      UOS BLOCK E03      MODEL: HEATER                                            TIME =      0.37
      KODE = 2  NTRIAL =   3  T = 623.1500  P = 2.451662E+06  V =  1.00000      Q =  166614.    

      CONVERGENCE BLOCK $OLVER02  METHOD: SECANT                                  TIME =      0.37
      ITER   0 For Specs:        DS-1

      UOS BLOCK RT1      MODEL: RPLUG                                             TIME =      0.37
        AT REACTOR EXIT :
        LENGTH =   6.0000      DIAMETER =  0.76300E-01  RESIDENCE TIME =   409.72    
        PROCESS STREAM T =    814.39     P =   0.24517E+07 H =   0.36030E+07 V =    1.0000    
        COOLANT STREAM T =    814.39     P =   0.98066E+06 H =  -0.40347E+07 V =    1.0000    
        MIN T =   527.370     AT Z/LENGTH =  0.365303E-01 MAX T =   814.399     AT Z/LENGTH =  0.801994    

      CONVERGENCE BLOCK $OLVER02  METHOD: SECANT                                  TIME =      0.41
      ITER   1 For Specs:        DS-1
      SPEC   1 ERROR =   141.24     OLD X =  0.18057E-01 NEW X =  0.18828E-01

  LOOP $OLVER02 ITER    1:   1 VARS NOT CONVERGED, MAX ERR/TOL      14124.        TIME =      0.41

      UOS BLOCK RT1      MODEL: RPLUG                                             TIME =      0.41
        AT REACTOR EXIT :
        LENGTH =   6.0000      DIAMETER =  0.76300E-01  RESIDENCE TIME =   405.54    
        PROCESS STREAM T =    810.15     P =   0.24517E+07 H =   0.35621E+07 V =    1.0000    
        COOLANT STREAM T =    810.15     P =   0.98066E+06 H =  -0.42101E+07 V =    1.0000    
        MIN T =   522.993     AT Z/LENGTH =  0.390339E-01 MAX T =   810.147     AT Z/LENGTH =  0.962543    

      CONVERGENCE BLOCK $OLVER02  METHOD: SECANT                                  TIME =      0.45
      ITER   2 For Specs:        DS-1
      SPEC   1 ERROR =   137.00     OLD X =  0.18828E-01 NEW X =  0.43691E-01

  LOOP $OLVER02 ITER    2:   1 VARS NOT CONVERGED, MAX ERR/TOL      13700.        TIME =      0.45

      UOS BLOCK RT1      MODEL: RPLUG                                             TIME =      0.45
        AT REACTOR EXIT :
        LENGTH =   6.0000      DIAMETER =  0.76300E-01  RESIDENCE TIME =   512.47    
        PROCESS STREAM T =    452.34     P =   0.24517E+07 H =   0.32459E+07 V =    1.0000    
        COOLANT STREAM T =    452.27     P =   0.98066E+06 H =  -0.10870E+08 V =   0.69444    
        MIN T =   452.336     AT Z/LENGTH =  0.489483     MAX T =   623.150     AT Z/LENGTH =   0.00000    

      CONVERGENCE BLOCK $OLVER02  METHOD: SECANT                                  TIME =      0.46
      ITER   3 For Specs:        DS-1
      SPEC   1 ERROR =  -220.81     OLD X =  0.43691E-01 NEW X =  0.32053E-01

  LOOP $OLVER02 ITER    3:   1 VARS NOT CONVERGED, MAX ERR/TOL     -22081.        TIME =      0.46

      UOS BLOCK RT1      MODEL: RPLUG                                             TIME =      0.47
        AT REACTOR EXIT :
        LENGTH =   6.0000      DIAMETER =  0.76300E-01  RESIDENCE TIME =   512.74    
        PROCESS STREAM T =    452.34     P =   0.24517E+07 H =   0.32437E+07 V =    1.0000    
        COOLANT STREAM T =    452.27     P =   0.98066E+06 H =  -0.76021E+07 V =   0.99851    
        MIN T =   452.337     AT Z/LENGTH =  0.537836     MAX T =   623.150     AT Z/LENGTH =   0.00000    

      CONVERGENCE BLOCK $OLVER02  METHOD: SECANT                                  TIME =      0.48
      ITER   4 For Specs:        DS-1
      SPEC   1 ERROR =  -220.81     OLD X =  0.32053E-01 NEW X =  0.18828E-01

  LOOP $OLVER02 ITER    4:   1 VARS NOT CONVERGED, MAX ERR/TOL     -22081.        TIME =      0.48

      UOS BLOCK RT1      MODEL: RPLUG                                             TIME =      0.48
        AT REACTOR EXIT :
        LENGTH =   6.0000      DIAMETER =  0.76300E-01  RESIDENCE TIME =   405.54    
        PROCESS STREAM T =    810.15     P =   0.24517E+07 H =   0.35621E+07 V =    1.0000    
        COOLANT STREAM T =    810.15     P =   0.98066E+06 H =  -0.42101E+07 V =    1.0000    
        MIN T =   522.993     AT Z/LENGTH =  0.390339E-01 MAX T =   810.146     AT Z/LENGTH =  0.962542    

      CONVERGENCE BLOCK $OLVER02  METHOD: SECANT                                  TIME =      0.51
      ITER   5 For Specs:        DS-1
      SPEC   1 ERROR =   137.00     OLD X =  0.18828E-01 NEW X =  0.25440E-01

  LOOP $OLVER02 ITER    5:   1 VARS NOT CONVERGED, MAX ERR/TOL      13700.        TIME =      0.51

      UOS BLOCK RT1      MODEL: RPLUG                                             TIME =      0.51
        AT REACTOR EXIT :
        LENGTH =   6.0000      DIAMETER =  0.76300E-01  RESIDENCE TIME =   442.91    
        PROCESS STREAM T =    496.84     P =   0.24517E+07 H =   0.34873E+07 V =    1.0000    
        COOLANT STREAM T =    498.20     P =   0.98066E+06 H =  -0.59904E+07 V =    1.0000    
        MIN T =   485.941     AT Z/LENGTH =  0.691381E-01 MAX T =   623.150     AT Z/LENGTH =   0.00000    

      CONVERGENCE BLOCK $OLVER02  METHOD: SECANT                                  TIME =      0.53
      ITER   6 For Specs:        DS-1
      SPEC   1 ERROR =  -176.31     OLD X =  0.25440E-01 NEW X =  0.19899E-01

  LOOP $OLVER02 ITER    6:   1 VARS NOT CONVERGED, MAX ERR/TOL     -17631.        TIME =      0.53

      UOS BLOCK RT1      MODEL: RPLUG                                             TIME =      0.54
        AT REACTOR EXIT :
        LENGTH =   6.0000      DIAMETER =  0.76300E-01  RESIDENCE TIME =   397.85    
        PROCESS STREAM T =    804.28     P =   0.24517E+07 H =   0.35057E+07 V =    1.0000    
        COOLANT STREAM T =    804.27     P =   0.98066E+06 H =  -0.44541E+07 V =    1.0000    
        MIN T =   516.917     AT Z/LENGTH =  0.432741E-01 MAX T =   804.282     AT Z/LENGTH =   1.00000    

      CONVERGENCE BLOCK $OLVER02  METHOD: SECANT                                  TIME =      0.57
      ITER   7 For Specs:        DS-1
      SPEC   1 ERROR =   131.13     OLD X =  0.19899E-01 NEW X =  0.24695E-01

  LOOP $OLVER02 ITER    7:   1 VARS NOT CONVERGED, MAX ERR/TOL      13113.        TIME =      0.57

      UOS BLOCK RT1      MODEL: RPLUG                                             TIME =      0.57
        AT REACTOR EXIT :
        LENGTH =   6.0000      DIAMETER =  0.76300E-01  RESIDENCE TIME =   435.81    
        PROCESS STREAM T =    503.92     P =   0.24517E+07 H =   0.35144E+07 V =    1.0000    
        COOLANT STREAM T =    505.28     P =   0.98066E+06 H =  -0.58085E+07 V =    1.0000    
        MIN T =   490.050     AT Z/LENGTH =  0.637859E-01 MAX T =   623.150     AT Z/LENGTH =   0.00000    

      CONVERGENCE BLOCK $OLVER02  METHOD: SECANT                                  TIME =      0.59
      ITER   8 For Specs:        DS-1
      SPEC   1 ERROR =  -169.23     OLD X =  0.24695E-01 NEW X =  0.21273E-01

  LOOP $OLVER02 ITER    8:   1 VARS NOT CONVERGED, MAX ERR/TOL     -16923.        TIME =      0.59

      UOS BLOCK RT1      MODEL: RPLUG                                             TIME =      0.59
        AT REACTOR EXIT :
        LENGTH =   6.0000      DIAMETER =  0.76300E-01  RESIDENCE TIME =   404.06    
        PROCESS STREAM T =    568.13     P =   0.24517E+07 H =   0.36196E+07 V =    1.0000    
        COOLANT STREAM T =    570.92     P =   0.98066E+06 H =  -0.49536E+07 V =    1.0000    
        MIN T =   509.148     AT Z/LENGTH =  0.481211E-01 MAX T =   623.150     AT Z/LENGTH =   0.00000    

      CONVERGENCE BLOCK $OLVER02  METHOD: SECANT                                  TIME =      0.61
      ITER   9 For Specs:        DS-1
      SPEC   1 ERROR =  -105.02     OLD X =  0.21273E-01 NEW X =  0.20273E-01

  LOOP $OLVER02 ITER    9:   1 VARS NOT CONVERGED, MAX ERR/TOL     -10502.        TIME =      0.61

      UOS BLOCK RT1      MODEL: RPLUG                                             TIME =      0.62
        AT REACTOR EXIT :
        LENGTH =   6.0000      DIAMETER =  0.76300E-01  RESIDENCE TIME =   395.20    
        PROCESS STREAM T =    741.64     P =   0.24517E+07 H =   0.35429E+07 V =    1.0000    
        COOLANT STREAM T =    737.53     P =   0.98066E+06 H =  -0.45963E+07 V =    1.0000    
        MIN T =   514.804     AT Z/LENGTH =  0.452988E-01 MAX T =   741.637     AT Z/LENGTH =   1.00000    

      CONVERGENCE BLOCK $OLVER02  METHOD: SECANT                                  TIME =      0.64
      ITER  10 For Specs:        DS-1
      SPEC   1 ERROR =   68.487     OLD X =  0.20273E-01 NEW X =  0.20674E-01

  LOOP $OLVER02 ITER   10:   1 VARS NOT CONVERGED, MAX ERR/TOL      6848.7        TIME =      0.64

      UOS BLOCK RT1      MODEL: RPLUG                                             TIME =      0.64
        AT REACTOR EXIT :
        LENGTH =   6.0000      DIAMETER =  0.76300E-01  RESIDENCE TIME =   398.37    
        PROCESS STREAM T =    611.83     P =   0.24517E+07 H =   0.36155E+07 V =    1.0000    
        COOLANT STREAM T =    615.58     P =   0.98066E+06 H =  -0.47814E+07 V =    1.0000    
        MIN T =   512.525     AT Z/LENGTH =  0.463104E-01 MAX T =   623.150     AT Z/LENGTH =   0.00000    

      CONVERGENCE BLOCK $OLVER02  METHOD: SECANT                                  TIME =      0.66
      ITER  11 For Specs:        DS-1
      SPEC   1 ERROR =  -61.316     OLD X =  0.20674E-01 NEW X =  0.20401E-01

  LOOP $OLVER02 ITER   11:   1 VARS NOT CONVERGED, MAX ERR/TOL     -6131.6        TIME =      0.66

      UOS BLOCK RT1      MODEL: RPLUG                                             TIME =      0.67
        AT REACTOR EXIT :
        LENGTH =   6.0000      DIAMETER =  0.76300E-01  RESIDENCE TIME =   395.91    
        PROCESS STREAM T =    671.02     P =   0.24517E+07 H =   0.35864E+07 V =    1.0000    
        COOLANT STREAM T =    671.99     P =   0.98066E+06 H =  -0.46758E+07 V =    1.0000    
        MIN T =   514.075     AT Z/LENGTH =  0.450733E-01 MAX T =   671.016     AT Z/LENGTH =   1.00000    

      CONVERGENCE BLOCK $OLVER02  METHOD: SECANT                                  TIME =      0.69
      ITER  12 For Specs:        DS-1
      SPEC   1 ERROR =  -2.1336     OLD X =  0.20401E-01 NEW X =  0.20395E-01

  LOOP $OLVER02 ITER   12:   1 VARS NOT CONVERGED, MAX ERR/TOL     -213.36        TIME =      0.69

      UOS BLOCK RT1      MODEL: RPLUG                                             TIME =      0.69
        AT REACTOR EXIT :
        LENGTH =   6.0000      DIAMETER =  0.76300E-01  RESIDENCE TIME =   395.87    
        PROCESS STREAM T =    672.43     P =   0.24517E+07 H =   0.35857E+07 V =    1.0000    
        COOLANT STREAM T =    680.24     P =   0.98066E+06 H =  -0.46735E+07 V =    1.0000    
        MIN T =   514.108     AT Z/LENGTH =  0.454067E-01 MAX T =   672.434     AT Z/LENGTH =   1.00000    

      CONVERGENCE BLOCK $OLVER02  METHOD: SECANT                                  TIME =      0.72
      ITER  13 For Specs:        DS-1
      SPEC   1 ERROR = -0.71629     OLD X =  0.20395E-01 NEW X =  0.20393E-01

  LOOP $OLVER02 ITER   13:   1 VARS NOT CONVERGED, MAX ERR/TOL     -71.629        TIME =      0.72

      UOS BLOCK RT1      MODEL: RPLUG                                             TIME =      0.72
        AT REACTOR EXIT :
        LENGTH =   6.0000      DIAMETER =  0.76300E-01  RESIDENCE TIME =   395.85    
        PROCESS STREAM T =    673.39     P =   0.24517E+07 H =   0.35852E+07 V =    1.0000    
        COOLANT STREAM T =    677.87     P =   0.98066E+06 H =  -0.46722E+07 V =    1.0000    
        MIN T =   514.123     AT Z/LENGTH =  0.452987E-01 MAX T =   673.392     AT Z/LENGTH =   1.00000    

      CONVERGENCE BLOCK $OLVER02  METHOD: SECANT                                  TIME =      0.74
      ITER  14 For Specs:        DS-1
      SPEC   1 ERROR =  0.24216     OLD X =  0.20393E-01 NEW X =  0.20393E-01

  LOOP $OLVER02 ITER   14:   1 VARS NOT CONVERGED, MAX ERR/TOL      24.216        TIME =      0.74

      UOS BLOCK RT1      MODEL: RPLUG                                             TIME =      0.74
        AT REACTOR EXIT :
        LENGTH =   6.0000      DIAMETER =  0.76300E-01  RESIDENCE TIME =   395.86    
        PROCESS STREAM T =    673.13     P =   0.24517E+07 H =   0.35853E+07 V =    1.0000    
        COOLANT STREAM T =    677.82     P =   0.98066E+06 H =  -0.46725E+07 V =    1.0000    
        MIN T =   514.119     AT Z/LENGTH =  0.453207E-01 MAX T =   673.132     AT Z/LENGTH =   1.00000    

      CONVERGENCE BLOCK $OLVER02  METHOD: SECANT                                  TIME =      0.77
      ITER  15 For Specs:        DS-1
      SPEC   1 ERROR = -0.18376E-01 OLD X =  0.20393E-01 NEW X =  0.20393E-01

  LOOP $OLVER02 ITER   15:   1 VARS NOT CONVERGED, MAX ERR/TOL     -1.8376        TIME =      0.77

      UOS BLOCK RT1      MODEL: RPLUG                                             TIME =      0.77
        AT REACTOR EXIT :
        LENGTH =   6.0000      DIAMETER =  0.76300E-01  RESIDENCE TIME =   395.86    
        PROCESS STREAM T =    673.15     P =   0.24517E+07 H =   0.35853E+07 V =    1.0000    
        COOLANT STREAM T =    677.82     P =   0.98066E+06 H =  -0.46725E+07 V =    1.0000    
        MIN T =   514.120     AT Z/LENGTH =  0.453186E-01 MAX T =   673.150     AT Z/LENGTH =   1.00000    

      CONVERGENCE BLOCK $OLVER02  METHOD: SECANT                                  TIME =      0.79
      ITER  16 For Specs:        DS-1
      SPEC   1 ERROR =  0.46892E-03                          X =  0.20393E-01

  LOOP $OLVER02 ITER   16:     *** CONVERGED *** , MAX ERR/TOL     0.46892E-01    TIME =      0.79

      UOS BLOCK E07      MODEL: HEATX                                             TIME =      0.79
      KODE = 2  NTRIAL =   1  T = 288.1500  P =  101325.      V =  0.00000      Q =  0.00000    
      KODE = 2  NTRIAL =   1  T = 293.1500  P =  101325.      V =  0.00000      Q =  0.00000    
      SPECIFICATION: HOT OUTLET TEMP       363.15    
      FLOW TYPE:     COUNTERCURRENT  
      HOT:  TIN=  448.82  PIN=0.12100E+07   TOUT=  363.15  POUT=0.24517E+06
      COLD: TIN=  288.15  PIN=0.10132E+06   TOUT=  293.15  POUT=0.10132E+06
                              DUTY=0.28149E+07

      UOS BLOCK C-2      MODEL: RADFRAC                                           TIME =      0.79

       Convergence iterations:
         OL   ML   IL     Err/Tol
          1    1    3      374.05    
          2    1    3      84.910    
          3    1    3      23.778    
          4    1    3      5.4218    
          5    1    3     0.71813    

      UOS BLOCK P-3      MODEL: PUMP                                              TIME =      0.80
      VOL-FLOW   =  0.1527E-01 , DELTA P    =  0.2358E+07 , PUMP EFF   =  0.6408    
      FLUID PWR  =  0.3602E+05 , BRAKE PWR  =  0.5621E+05 , ELEC PWR   =  0.5621E+05

      UOS BLOCK M-1      MODEL: MIXER                                             TIME =      0.80
      NO. TEMP ITER =    6     TEMP =  357.242    
      KODE = 1  NTRIAL =   4  T = 357.2418  P = 2.533125E+06  V =  0.00000      Q =  0.00000    

      UOS BLOCK E01      MODEL: HEATX                                             TIME =      0.80
      SPECIFICATION: EXCHANGER DUTY       0.87400E+07
      FLOW TYPE:     COUNTERCURRENT  
      HOT:  TIN=  606.87  PIN=0.24517E+07   TOUT=  465.68  POUT=0.24517E+07
      COLD: TIN=  449.27  PIN=0.20389E+06   TOUT=  453.35  POUT=0.20389E+06
                              DUTY=0.87400E+07

      UOS BLOCK E08      MODEL: HEATX                                             TIME =      0.80
      KODE = 5  NTRIAL =   2  T = 397.1500  P =  225121.      V =  0.00000      Q =  0.00000    
      KODE = 5  NTRIAL =   2  T = 398.1500  P =  232179.      V =  1.00000      Q =  0.00000    
      SPECIFICATION: HOT OUTLET TEMP       423.15    
      FLOW TYPE:     COUNTERCURRENT  
      HOT:  TIN=  465.68  PIN=0.24517E+07   TOUT=  423.15  POUT=0.20000E+07
      COLD: TIN=  397.15  PIN=0.22512E+06   TOUT=  398.15  POUT=0.23218E+06
                              DUTY=0.15392E+07

      UOS BLOCK C-1      MODEL: RADFRAC                                           TIME =      0.80

       Convergence iterations:
         OL   ML   IL     Err/Tol
          1    1   10      12925.    
          2    1   10      5950.6    
          3    1   10      2797.9    
          4    1   10      580.43    
          5    1   10      382.91    
          6    1   10      217.67    
          7   12   81      158.17    
          8   19  136      85.567    
          9    7   51      148.30    
         10    7   45      76.158    
         11    7   48      108.81    
         12    7   44      65.786    
         13    7   48      104.88    
         14    7   44      62.453    
         15    7   48      105.94    
         16    7   41      87.612    
         17    7   48      92.677    
         18    7   43      92.211    
         19    7   49      84.305    
         20    7   43      94.896    
         21    7   46      78.097    
         22    7   40      91.413    
         23    7   48      70.728    
         24    7   42      87.306    
         25    7   48      72.145    

  **  ERROR WHILE EXECUTING UNIT OPERATIONS BLOCK: "C-1" (MODEL: "RADFRAC")     
                                                               (UDL03.1)        
      RADFRAC NOT CONVERGED IN  25 OUTSIDE LOOP ITERATIONS.                     

  *** SEVERE ERROR WHILE EXECUTING UNIT OPERATIONS BLOCK: "C-1" (MODEL:         
      "RADFRAC")                                               (UDL03.3)        
      THE FOLLOWING STAGES DRIED UP (VAPOR OR LIQUID FLOW APPROACHES 0):        
        4                                                                       
      A LIMIT OF  0.10000E-04 * SUM OF FEEDS WAS IMPOSED ON THE FLOW RATES      
      OR A LIMIT OF  0.10000E-04 WAS IMPOSED ON THE STAGE V/L OR L/V RATIO.     

      RESULTS FOR MANIPULATED VARIABLES:
      VARIABLE     FINAL VALUE    LOWER BOUND    UPPER BOUND
         1          5.6959         0.0000         10.000    
         2         0.40119        0.10000         2.0000    

      UOS BLOCK E02      MODEL: HEATX                                             TIME =      0.82
      SPECIFICATION: EXCHANGER DUTY       0.30200E+07
      FLOW TYPE:     COUNTERCURRENT  
      HOT:  TIN=  470.73  PIN=0.12100E+07   TOUT=  383.52  POUT=0.12100E+07
      COLD: TIN=  357.24  PIN=0.25331E+07   TOUT=  457.16  POUT=0.25331E+07
                              DUTY=0.30200E+07

      UOS BLOCK E04      MODEL: HEATX                                             TIME =      0.82
      SPECIFICATION: EXCHANGER DUTY       0.16320E+07
      FLOW TYPE:     COUNTERCURRENT  
      HOT:  TIN=  673.15  PIN=0.24517E+07   TOUT=  511.21  POUT=0.24517E+07
      COLD: TIN=  457.16  PIN=0.25331E+07   TOUT=  500.51  POUT=0.25331E+07
                              DUTY=0.16320E+07

      UOS BLOCK E05      MODEL: HEATX                                             TIME =      0.82
      SPECIFICATION: EXCHANGER DUTY       0.93040E+06
      FLOW TYPE:     COUNTERCURRENT  

  **  ERROR WHILE EXECUTING UNIT OPERATIONS BLOCK: "E05" (MODEL: "HEATX")       
                                                               (HEATX.4)        
      TEMPERATURE CROSSOVER DETECTED                                            
      RE-CALCULATING WITH MINIMUM APPROACH TEMP. SPEC                           
      HOT:  TIN=  511.21  PIN=0.24517E+07   TOUT=  444.81  POUT=0.24517E+07
      COLD: TIN=  299.72  PIN=0.24517E+07   TOUT=  501.21  POUT=0.24517E+07
                              DUTY=0.90063E+06

      UOS BLOCK M-2      MODEL: MIXER                                             TIME =      0.82
      T-LOOP CONVERGED IN   9 ITERATIONS.  T =  479.9664
      KODE = 1  NTRIAL =   6  T = 479.9664  P = 2.451662E+06  V = 0.294161      Q = -11.9365    

      CONVERGENCE BLOCK $OLVER01  METHOD: BROYDEN                                 TIME =      0.82
      ITER   2 For Tear Streams: 3         WARMFEED  14

      --FLASH TEAR STREAM 3       
      KODE = 1  NTRIAL =  13  T = 444.8125  P = 2.451662E+06  V = 0.172583      Q =  0.00000    

      --FLASH TEAR STREAM WARMFEED
      T-LOOP CONVERGED IN   9 ITERATIONS.  T =  479.9663
      KODE = 1  NTRIAL =   6  T = 479.9663  P = 2.451662E+06  V = 0.294158      Q = -11.9354    

      --FLASH TEAR STREAM 14      
      NO. TEMP ITER =    5     TEMP =  383.522    
      KODE = 1  NTRIAL =   4  T = 383.5217  P = 1.210000E+06  V =  0.00000      Q =  0.00000    

  LOOP $OLVER01 ITER    2:  18 VARS NOT CONVERGED, MAX ERR/TOL     0.60130E+06    TIME =      0.83

      UOS BLOCK E03      MODEL: HEATER                                            TIME =      0.83
      KODE = 2  NTRIAL =   2  T = 623.1500  P = 2.451662E+06  V =  1.00000      Q = 7.646793E+06

      CONVERGENCE BLOCK $OLVER02  METHOD: SECANT                                  TIME =      0.83
      ITER   0 For Specs:        DS-1

      UOS BLOCK RT1      MODEL: RPLUG                                             TIME =      0.83
        AT REACTOR EXIT :
        LENGTH =   6.0000      DIAMETER =  0.76300E-01  RESIDENCE TIME =   90.443    
        PROCESS STREAM T =    669.77     P =   0.24517E+07 H =   0.22534E+08 V =    1.0000    
        COOLANT STREAM T =    670.14     P =   0.98066E+06 H =  -0.46706E+07 V =    1.0000    
        MIN T =   598.177     AT Z/LENGTH =  0.312220E-01 MAX T =   669.771     AT Z/LENGTH =   1.00000    

      CONVERGENCE BLOCK $OLVER02  METHOD: SECANT                                  TIME =      0.85
      ITER   1 For Specs:        DS-1
      SPEC   1 ERROR =  -3.3792     OLD X =  0.20393E-01 NEW X =  0.20385E-01

  LOOP $OLVER02 ITER    1:   1 VARS NOT CONVERGED, MAX ERR/TOL     -337.92        TIME =      0.85

      UOS BLOCK RT1      MODEL: RPLUG                                             TIME =      0.85
        AT REACTOR EXIT :
        LENGTH =   6.0000      DIAMETER =  0.76300E-01  RESIDENCE TIME =   90.441    
        PROCESS STREAM T =    669.79     P =   0.24517E+07 H =   0.22534E+08 V =    1.0000    
        COOLANT STREAM T =    670.15     P =   0.98066E+06 H =  -0.46686E+07 V =    1.0000    
        MIN T =   598.187     AT Z/LENGTH =  0.312087E-01 MAX T =   669.785     AT Z/LENGTH =   1.00000    

      CONVERGENCE BLOCK $OLVER02  METHOD: SECANT                                  TIME =      0.87
      ITER   2 For Specs:        DS-1
      SPEC   1 ERROR =  -3.3649     OLD X =  0.20385E-01 NEW X =  0.18352E-01

  LOOP $OLVER02 ITER    2:   1 VARS NOT CONVERGED, MAX ERR/TOL     -336.49        TIME =      0.87

      UOS BLOCK RT1      MODEL: RPLUG                                             TIME =      0.87
        AT REACTOR EXIT :
        LENGTH =   6.0000      DIAMETER =  0.76300E-01  RESIDENCE TIME =   89.872    
        PROCESS STREAM T =    673.02     P =   0.24517E+07 H =   0.22637E+08 V =    1.0000    
        COOLANT STREAM T =    673.05     P =   0.98066E+06 H =  -0.42008E+07 V =    1.0000    
        MIN T =   600.758     AT Z/LENGTH =  0.282920E-01 MAX T =   673.025     AT Z/LENGTH =   1.00000    

      CONVERGENCE BLOCK $OLVER02  METHOD: SECANT                                  TIME =      0.89
      ITER   3 For Specs:        DS-1
      SPEC   1 ERROR = -0.12550     OLD X =  0.18352E-01 NEW X =  0.18273E-01

  LOOP $OLVER02 ITER    3:   1 VARS NOT CONVERGED, MAX ERR/TOL     -12.550        TIME =      0.89

      UOS BLOCK RT1      MODEL: RPLUG                                             TIME =      0.89
        AT REACTOR EXIT :
        LENGTH =   6.0000      DIAMETER =  0.76300E-01  RESIDENCE TIME =   89.850    
        PROCESS STREAM T =    673.14     P =   0.24517E+07 H =   0.22641E+08 V =    1.0000    
        COOLANT STREAM T =    673.14     P =   0.98066E+06 H =  -0.41826E+07 V =    1.0000    
        MIN T =   600.857     AT Z/LENGTH =  0.283938E-01 MAX T =   673.145     AT Z/LENGTH =   1.00000    

      CONVERGENCE BLOCK $OLVER02  METHOD: SECANT                                  TIME =      0.91
      ITER   4 For Specs:        DS-1
      SPEC   1 ERROR = -0.50062E-02                          X =  0.18273E-01

  LOOP $OLVER02 ITER    4:     *** CONVERGED *** , MAX ERR/TOL    -0.50062        TIME =      0.91

      UOS BLOCK E07      MODEL: HEATX                                             TIME =      0.91
      KODE = 2  NTRIAL =   1  T = 288.1500  P =  101325.      V =  0.00000      Q =  0.00000    
      KODE = 2  NTRIAL =   1  T = 293.1500  P =  101325.      V =  0.00000      Q =  0.00000    
      SPECIFICATION: HOT OUTLET TEMP       363.15    
      FLOW TYPE:     COUNTERCURRENT  
      HOT:  TIN=  383.52  PIN=0.12100E+07   TOUT=  363.15  POUT=0.24517E+06
      COLD: TIN=  288.15  PIN=0.10132E+06   TOUT=  293.15  POUT=0.10132E+06
                              DUTY=0.62380E+06

      UOS BLOCK C-2      MODEL: RADFRAC                                           TIME =      0.92

       Convergence iterations:
         OL   ML   IL     Err/Tol
          1    1    5      13.312    
          2    1    3      1.8907    
          3    1    3     0.48755    

      UOS BLOCK P-3      MODEL: PUMP                                              TIME =      0.92
      VOL-FLOW   =  0.1544E-01 , DELTA P    =  0.2358E+07 , PUMP EFF   =  0.6419    
      FLUID PWR  =  0.3640E+05 , BRAKE PWR  =  0.5671E+05 , ELEC PWR   =  0.5671E+05

      UOS BLOCK M-1      MODEL: MIXER                                             TIME =      0.92
      NO. TEMP ITER =    6     TEMP =  362.727    
      KODE = 1  NTRIAL =   3  T = 362.7270  P = 2.533125E+06  V =  0.00000      Q =  0.00000    

      UOS BLOCK E01      MODEL: HEATX                                             TIME =      0.92

  **  ERROR WHILE EXECUTING UNIT OPERATIONS BLOCK: "E01" (MODEL: "HEATX")       
                                                               (UHE02I.2)       
      "COLD" STREAM IS HOTTER THAN "HOT" STREAM                                 
      BLOCK BYPASSED                                                            

      UOS BLOCK E08      MODEL: HEATX                                             TIME =      0.92
      KODE = 5  NTRIAL =   2  T = 397.1500  P =  225121.      V =  0.00000      Q =  0.00000    
      KODE = 5  NTRIAL =   2  T = 398.1500  P =  232179.      V =  1.00000      Q =  0.00000    
      SPECIFICATION: HOT OUTLET TEMP       423.15    
      FLOW TYPE:     COUNTERCURRENT  
      HOT:  TIN=  444.81  PIN=0.24517E+07   TOUT=  423.15  POUT=0.20000E+07
      COLD: TIN=  397.15  PIN=0.22512E+06   TOUT=  398.15  POUT=0.23218E+06
                              DUTY=0.18720E+06

      UOS BLOCK C-1      MODEL: RADFRAC                                           TIME =      0.92

       Convergence iterations:
         OL   ML   IL     Err/Tol
          1    1   10      2604.7    
          2    1    5      539.34    
          3   10   56      431.38    
          4   12   95      542.77    
          5   10   63      715.05    
          6    6   35      455.02    
          7    7   40      152.59    
          8    7   33      96.105    
          9    7   28      65.957    
         10    7   28      22.745    
         11    4   11      14.693    
         12    3    9      2.6325    
         13    2    5     0.39737    

      RESULTS FOR MANIPULATED VARIABLES:
      VARIABLE     FINAL VALUE    LOWER BOUND    UPPER BOUND
         1          1.1571         0.0000         10.000    
         2         0.81515        0.10000         2.0000    

      UOS BLOCK E02      MODEL: HEATX                                             TIME =      0.93
      SPECIFICATION: EXCHANGER DUTY       0.30200E+07
      FLOW TYPE:     COUNTERCURRENT  

  **  ERROR WHILE EXECUTING UNIT OPERATIONS BLOCK: "E02" (MODEL: "HEATX")       
                                                               (HEATX.4)        
      TEMPERATURE CROSSOVER DETECTED                                            
      RE-CALCULATING WITH MINIMUM APPROACH TEMP. SPEC                           
      HOT:  TIN=  499.91  PIN=0.12100E+07   TOUT=  363.73  POUT=0.12100E+07
      COLD: TIN=  362.73  PIN=0.25331E+07   TOUT=  393.33  POUT=0.25331E+07
                              DUTY=0.85467E+06

      UOS BLOCK E04      MODEL: HEATX                                             TIME =      0.93
      SPECIFICATION: EXCHANGER DUTY       0.16320E+07
      FLOW TYPE:     COUNTERCURRENT  
      HOT:  TIN=  673.14  PIN=0.24517E+07   TOUT=  628.46  POUT=0.24517E+07
      COLD: TIN=  393.33  PIN=0.25331E+07   TOUT=  445.75  POUT=0.25331E+07
                              DUTY=0.16320E+07

      UOS BLOCK E05      MODEL: HEATX                                             TIME =      0.93
      SPECIFICATION: EXCHANGER DUTY       0.93040E+06
      FLOW TYPE:     COUNTERCURRENT  
      HOT:  TIN=  628.46  PIN=0.24517E+07   TOUT=  602.43  POUT=0.24517E+07
      COLD: TIN=  299.72  PIN=0.24517E+07   TOUT=  511.36  POUT=0.24517E+07
                              DUTY=0.93040E+06

      UOS BLOCK M-2      MODEL: MIXER                                             TIME =      0.93
      T-LOOP CONVERGED IN   7 ITERATIONS.  T =  455.6240
      KODE = 1  NTRIAL =  12  T = 455.6240  P = 2.451662E+06  V =  0.00000      Q = 3.180570E-05

      CONVERGENCE BLOCK $OLVER01  METHOD: BROYDEN                                 TIME =      0.93
      ITER   3 For Tear Streams: 3         WARMFEED  14

      --FLASH TEAR STREAM 3       
      KODE = 1  NTRIAL =   5  T = 521.5726  P = 2.451662E+06  V = 0.602041      Q =  0.00000    

      --FLASH TEAR STREAM WARMFEED
      T-LOOP CONVERGED IN   6 ITERATIONS.  T =  465.7552
      KODE = 1  NTRIAL =   5  T = 465.7552  P = 2.451662E+06  V = 7.039602E-02  Q = 8.531923E-03

      --FLASH TEAR STREAM 14      
      NO. TEMP ITER =    6     TEMP =  272.706    
      KODE = 1  NTRIAL =   4  T = 272.7055  P = 1.210000E+06  V =  0.00000      Q =  0.00000    

  LOOP $OLVER01 ITER    3:  19 VARS NOT CONVERGED, MAX ERR/TOL     0.10954E+06    TIME =      0.93

      UOS BLOCK E03      MODEL: HEATER                                            TIME =      0.93
      KODE = 2  NTRIAL =   2  T = 623.1500  P = 2.451662E+06  V =  1.00000      Q = 9.023510E+06

      CONVERGENCE BLOCK $OLVER02  METHOD: SECANT                                  TIME =      0.93
      ITER   0 For Specs:        DS-1

      UOS BLOCK RT1      MODEL: RPLUG                                             TIME =      0.93
        AT REACTOR EXIT :
        LENGTH =   6.0000      DIAMETER =  0.76300E-01  RESIDENCE TIME =   89.903    
        PROCESS STREAM T =    672.92     P =   0.24517E+07 H =   0.22777E+08 V =    1.0000    
        COOLANT STREAM T =    672.93     P =   0.98066E+06 H =  -0.41828E+07 V =    1.0000    
        MIN T =   600.887     AT Z/LENGTH =  0.283983E-01 MAX T =   672.916     AT Z/LENGTH =   1.00000    

      CONVERGENCE BLOCK $OLVER02  METHOD: SECANT                                  TIME =      0.95
      ITER   1 For Specs:        DS-1
      SPEC   1 ERROR = -0.23399     OLD X =  0.18273E-01 NEW X =  0.18126E-01

  LOOP $OLVER02 ITER    1:   1 VARS NOT CONVERGED, MAX ERR/TOL     -23.399        TIME =      0.95

      UOS BLOCK RT1      MODEL: RPLUG                                             TIME =      0.96
        AT REACTOR EXIT :
        LENGTH =   6.0000      DIAMETER =  0.76300E-01  RESIDENCE TIME =   89.862    
        PROCESS STREAM T =    673.16     P =   0.24517E+07 H =   0.22784E+08 V =    1.0000    
        COOLANT STREAM T =    673.24     P =   0.98066E+06 H =  -0.41490E+07 V =    1.0000    
        MIN T =   601.070     AT Z/LENGTH =  0.280045E-01 MAX T =   673.156     AT Z/LENGTH =   1.00000    

      CONVERGENCE BLOCK $OLVER02  METHOD: SECANT                                  TIME =      0.98
      ITER   2 For Specs:        DS-1
      SPEC   1 ERROR =  0.60715E-02                          X =  0.18126E-01

  LOOP $OLVER02 ITER    2:     *** CONVERGED *** , MAX ERR/TOL     0.60715        TIME =      0.98

      UOS BLOCK E07      MODEL: HEATX                                             TIME =      0.98
      KODE = 2  NTRIAL =   1  T = 288.1500  P =  101325.      V =  0.00000      Q =  0.00000    
      KODE = 2  NTRIAL =   1  T = 293.1500  P =  101325.      V =  0.00000      Q =  0.00000    

  **  ERROR WHILE EXECUTING UNIT OPERATIONS BLOCK: "E07" (MODEL: "HEATX")       
                                                               (UHE02I.2)       
      "COLD" STREAM IS HOTTER THAN "HOT" STREAM                                 
      BLOCK BYPASSED                                                            

      UOS BLOCK C-2      MODEL: RADFRAC                                           TIME =      0.98

       Convergence iterations:
         OL   ML   IL     Err/Tol
          1    1    8      451.93    
          2    1    3      57.407    
          3    1    3      11.028    
          4    1    3      2.1567    
          5    1    3     0.82871E-01

      UOS BLOCK P-3      MODEL: PUMP                                              TIME =      0.98
      VOL-FLOW   =  0.6888E-02 , DELTA P    =  0.2358E+07 , PUMP EFF   =  0.5468    
      FLUID PWR  =  0.1624E+05 , BRAKE PWR  =  0.2971E+05 , ELEC PWR   =  0.2971E+05

      UOS BLOCK M-1      MODEL: MIXER                                             TIME =      0.98
      NO. TEMP ITER =    6     TEMP =  356.335    
      KODE = 1  NTRIAL =   4  T = 356.3346  P = 2.533125E+06  V =  0.00000      Q =  0.00000    

      UOS BLOCK E01      MODEL: HEATX                                             TIME =      0.98
      SPECIFICATION: EXCHANGER DUTY       0.87400E+07
      FLOW TYPE:     COUNTERCURRENT  

  **  ERROR WHILE EXECUTING UNIT OPERATIONS BLOCK: "E01" (MODEL: "HEATX")       
[...]
      NO. TEMP ITER =    5     TEMP =  289.102    
      KODE = 1  NTRIAL =   2  T = 289.1020  P =  101325.      V =  0.00000      Q =  0.00000    
      NO. TEMP ITER =    5     TEMP =  288.864    
      KODE = 1  NTRIAL =   2  T = 288.8639  P =  101325.      V =  0.00000      Q =  0.00000    
      NO. TEMP ITER =    5     TEMP =  288.626    
      KODE = 1  NTRIAL =   2  T = 288.6260  P =  101325.      V =  0.00000      Q =  0.00000    
      NO. TEMP ITER =    5     TEMP =  288.388    
      KODE = 1  NTRIAL =   2  T = 288.3880  P =  101325.      V =  0.00000      Q =  0.00000    
      NO. TEMP ITER =    5     TEMP =  288.150    
      KODE = 1  NTRIAL =   2  T = 288.1500  P =  101325.      V =  0.00000      Q =  0.00000    

      BEGIN HOT-TQCURVE  INLET   
      KODE = 1  NTRIAL =   4  T = 374.3057  P =  185000.      V =  1.00000      Q =  0.00000    
      KODE = 1  NTRIAL =   4  T = 374.2942  P =  185000.      V = 0.951522      Q =  0.00000    
      KODE = 3  NTRIAL =   4  T = 374.3057  P =  185000.      V =  1.00000      Q = 9.574090E-06
      KODE = 1  NTRIAL =   4  T = 374.2942  P =  185000.      V = 0.951522      Q =  0.00000    
      KODE = 1  NTRIAL =   2  T = 374.2853  P =  185000.      V = 0.903031      Q =  0.00000    
      KODE = 1  NTRIAL =   2  T = 374.2775  P =  185000.      V = 0.854535      Q =  0.00000    
      KODE = 1  NTRIAL =   2  T = 374.2699  P =  185000.      V = 0.806037      Q =  0.00000    
      KODE = 1  NTRIAL =   2  T = 374.2621  P =  185000.      V = 0.757541      Q =  0.00000    
      KODE = 1  NTRIAL =   2  T = 374.2539  P =  185000.      V = 0.709046      Q =  0.00000    
      KODE = 1  NTRIAL =   2  T = 374.2449  P =  185000.      V = 0.660555      Q =  0.00000    
      KODE = 1  NTRIAL =   2  T = 374.2348  P =  185000.      V = 0.612068      Q =  0.00000    
      KODE = 1  NTRIAL =   2  T = 374.2235  P =  185000.      V = 0.563587      Q =  0.00000    
      KODE = 1  NTRIAL =   2  T = 374.2103  P =  185000.      V = 0.515115      Q =  0.00000    
      KODE = 1  NTRIAL =   2  T = 374.1948  P =  185000.      V = 0.466652      Q =  0.00000    
      KODE = 1  NTRIAL =   2  T = 374.1762  P =  185000.      V = 0.418204      Q =  0.00000    
      KODE = 1  NTRIAL =   2  T = 374.1534  P =  185000.      V = 0.369774      Q =  0.00000    
      KODE = 1  NTRIAL =   2  T = 374.1247  P =  185000.      V = 0.321370      Q =  0.00000    
      KODE = 1  NTRIAL =   2  T = 374.0873  P =  185000.      V = 0.273005      Q =  0.00000    
      KODE = 1  NTRIAL =   2  T = 374.0367  P =  185000.      V = 0.224699      Q =  0.00000    
      KODE = 1  NTRIAL =   2  T = 373.9640  P =  185000.      V = 0.176491      Q =  0.00000    
      KODE = 1  NTRIAL =   2  T = 373.8513  P =  185000.      V = 0.128462      Q =  0.00000    
      KODE = 1  NTRIAL =   3  T = 373.6535  P =  185000.      V = 8.081030E-02  Q =  0.00000    
      KODE = 1  NTRIAL =   3  T = 373.2268  P =  185000.      V = 3.417620E-02  Q =  0.00000    
      NO. TEMP ITER =    4     TEMP =  370.262    
      KODE = 1  NTRIAL =   3  T = 370.2617  P =  185000.      V =  0.00000      Q =  0.00000    
      KODE = 3  NTRIAL =   7  T = 372.3501  P =  185000.      V =  0.00000      Q =-7.856754E+06
      NO. TEMP ITER =    4     TEMP =  370.262    
      KODE = 1  NTRIAL =   3  T = 370.2617  P =  185000.      V =  0.00000      Q =  0.00000    

      BEGIN COLD-TQCURVE INLET   
      NO. TEMP ITER =    5     TEMP =  288.201    
      KODE = 1  NTRIAL =   2  T = 288.2013  P =  101325.      V =  0.00000      Q =  0.00000    

      BEGIN HOT-TQCURVE  INLET   
      END HEATX TQ-CURVE CALCULATIONS FOR BLOCK E06     

      GENERATING RESULTS FOR UOS BLOCK E07      MODEL: HEATX                      TIME =      4.47
      KODE = 2  NTRIAL =   1  T = 288.1500  P =  101325.      V =  0.00000      Q =  0.00000    
      KODE = 2  NTRIAL =   1  T = 293.1500  P =  101325.      V =  0.00000      Q =  0.00000    
      SPECIFICATION: HOT OUTLET TEMP       363.15    
      FLOW TYPE:     COUNTERCURRENT  
      HOT:  TIN=  383.02  PIN=0.12100E+07   TOUT=  363.15  POUT=0.24517E+06
      COLD: TIN=  288.15  PIN=0.10132E+06   TOUT=  293.15  POUT=0.10132E+06
      AREA= 8.7112           DUTY=0.60872E+06       FT=1.00000

      BEGIN HEATX TQ-CURVE CALCULATIONS FOR BLOCK E07     

      BEGIN COLD-TQCURVE INLET   
      NO. TEMP ITER =    5     TEMP =  293.150    
      KODE = 1  NTRIAL =   2  T = 293.1500  P =  101325.      V =  0.00000      Q =  0.00000    
      NO. TEMP ITER =    5     TEMP =  292.912    
      KODE = 1  NTRIAL =   2  T = 292.9118  P =  101325.      V =  0.00000      Q =  0.00000    
      NO. TEMP ITER =    5     TEMP =  292.674    
      KODE = 1  NTRIAL =   2  T = 292.6736  P =  101325.      V =  0.00000      Q =  0.00000    
      NO. TEMP ITER =    5     TEMP =  292.435    
      KODE = 1  NTRIAL =   2  T = 292.4354  P =  101325.      V =  0.00000      Q =  0.00000    
      NO. TEMP ITER =    5     TEMP =  292.197    
      KODE = 1  NTRIAL =   2  T = 292.1972  P =  101325.      V =  0.00000      Q =  0.00000    
      NO. TEMP ITER =    5     TEMP =  291.959    
      KODE = 1  NTRIAL =   2  T = 291.9591  P =  101325.      V =  0.00000      Q =  0.00000    
      NO. TEMP ITER =    5     TEMP =  291.721    
      KODE = 1  NTRIAL =   2  T = 291.7209  P =  101325.      V =  0.00000      Q =  0.00000    
      NO. TEMP ITER =    5     TEMP =  291.483    
      KODE = 1  NTRIAL =   2  T = 291.4828  P =  101325.      V =  0.00000      Q =  0.00000    
      NO. TEMP ITER =    5     TEMP =  291.245    
      KODE = 1  NTRIAL =   2  T = 291.2446  P =  101325.      V =  0.00000      Q =  0.00000    
      NO. TEMP ITER =    5     TEMP =  291.007    
      KODE = 1  NTRIAL =   2  T = 291.0065  P =  101325.      V =  0.00000      Q =  0.00000    
      NO. TEMP ITER =    5     TEMP =  290.768    
      KODE = 1  NTRIAL =   2  T = 290.7684  P =  101325.      V =  0.00000      Q =  0.00000    
      NO. TEMP ITER =    5     TEMP =  290.530    
      KODE = 1  NTRIAL =   2  T = 290.5303  P =  101325.      V =  0.00000      Q =  0.00000    
      NO. TEMP ITER =    5     TEMP =  290.292    
      KODE = 1  NTRIAL =   2  T = 290.2922  P =  101325.      V =  0.00000      Q =  0.00000    
      NO. TEMP ITER =    5     TEMP =  290.054    
      KODE = 1  NTRIAL =   2  T = 290.0541  P =  101325.      V =  0.00000      Q =  0.00000    
      NO. TEMP ITER =    5     TEMP =  289.816    
      KODE = 1  NTRIAL =   2  T = 289.8161  P =  101325.      V =  0.00000      Q =  0.00000    
      NO. TEMP ITER =    5     TEMP =  289.578    
      KODE = 1  NTRIAL =   2  T = 289.5780  P =  101325.      V =  0.00000      Q =  0.00000    
      NO. TEMP ITER =    5     TEMP =  289.340    
      KODE = 1  NTRIAL =   2  T = 289.3400  P =  101325.      V =  0.00000      Q =  0.00000    
      NO. TEMP ITER =    5     TEMP =  289.102    
      KODE = 1  NTRIAL =   2  T = 289.1020  P =  101325.      V =  0.00000      Q =  0.00000    
      NO. TEMP ITER =    5     TEMP =  288.864    
      KODE = 1  NTRIAL =   2  T = 288.8639  P =  101325.      V =  0.00000      Q =  0.00000    
      NO. TEMP ITER =    5     TEMP =  288.626    
      KODE = 1  NTRIAL =   2  T = 288.6260  P =  101325.      V =  0.00000      Q =  0.00000    
      NO. TEMP ITER =    5     TEMP =  288.388    
      KODE = 1  NTRIAL =   2  T = 288.3880  P =  101325.      V =  0.00000      Q =  0.00000    
      NO. TEMP ITER =    5     TEMP =  288.150    
      KODE = 1  NTRIAL =   2  T = 288.1500  P =  101325.      V =  0.00000      Q =  0.00000    

      BEGIN HOT-TQCURVE  INLET   
      NO. TEMP ITER =    6     TEMP =  383.018    
      KODE = 1  NTRIAL =   4  T = 383.0178  P = 1.210000E+06  V =  0.00000      Q =  0.00000    
      NO. TEMP ITER =    6     TEMP =  382.077    
      KODE = 1  NTRIAL =   5  T = 382.0774  P = 1.210000E+06  V =  0.00000      Q =  0.00000    
      NO. TEMP ITER =    6     TEMP =  381.135    
      KODE = 1  NTRIAL =   4  T = 381.1349  P = 1.210000E+06  V =  0.00000      Q =  0.00000    
      NO. TEMP ITER =    6     TEMP =  380.190    
      KODE = 1  NTRIAL =   4  T = 380.1902  P = 1.210000E+06  V =  0.00000      Q =  0.00000    
      NO. TEMP ITER =    6     TEMP =  379.243    
      KODE = 1  NTRIAL =   4  T = 379.2432  P = 1.210000E+06  V =  0.00000      Q =  0.00000    
      NO. TEMP ITER =    6     TEMP =  378.294    
      KODE = 1  NTRIAL =   4  T = 378.2940  P = 1.210000E+06  V =  0.00000      Q =  0.00000    
      NO. TEMP ITER =    6     TEMP =  377.343    
      KODE = 1  NTRIAL =   4  T = 377.3425  P = 1.210000E+06  V =  0.00000      Q =  0.00000    
      NO. TEMP ITER =    6     TEMP =  376.389    
      KODE = 1  NTRIAL =   4  T = 376.3888  P = 1.210000E+06  V =  0.00000      Q =  0.00000    
      NO. TEMP ITER =    6     TEMP =  375.433    
      KODE = 1  NTRIAL =   4  T = 375.4328  P = 1.210000E+06  V =  0.00000      Q =  0.00000    
      NO. TEMP ITER =    6     TEMP =  374.475    
      KODE = 1  NTRIAL =   3  T = 374.4745  P = 1.210000E+06  V =  0.00000      Q =  0.00000    
      NO. TEMP ITER =    6     TEMP =  373.514    
      KODE = 1  NTRIAL =   3  T = 373.5139  P = 1.210000E+06  V =  0.00000      Q =  0.00000    
      NO. TEMP ITER =    6     TEMP =  372.551    
      KODE = 1  NTRIAL =   3  T = 372.5510  P = 1.210000E+06  V =  0.00000      Q =  0.00000    
      NO. TEMP ITER =    6     TEMP =  371.586    
      KODE = 1  NTRIAL =   3  T = 371.5858  P = 1.210000E+06  V =  0.00000      Q =  0.00000    
      NO. TEMP ITER =    6     TEMP =  370.618    
      KODE = 1  NTRIAL =   3  T = 370.6183  P = 1.210000E+06  V =  0.00000      Q =  0.00000    
      NO. TEMP ITER =    6     TEMP =  369.648    
      KODE = 1  NTRIAL =   3  T = 369.6484  P = 1.210000E+06  V =  0.00000      Q =  0.00000    
      NO. TEMP ITER =    6     TEMP =  368.676    
      KODE = 1  NTRIAL =   3  T = 368.6761  P = 1.210000E+06  V =  0.00000      Q =  0.00000    
      NO. TEMP ITER =    6     TEMP =  367.701    
      KODE = 1  NTRIAL =   3  T = 367.7015  P = 1.210000E+06  V =  0.00000      Q =  0.00000    
      NO. TEMP ITER =    6     TEMP =  366.724    
      KODE = 1  NTRIAL =   3  T = 366.7245  P = 1.210000E+06  V =  0.00000      Q =  0.00000    
      NO. TEMP ITER =    6     TEMP =  365.745    
      KODE = 1  NTRIAL =   3  T = 365.7451  P = 1.210000E+06  V =  0.00000      Q =  0.00000    
      NO. TEMP ITER =    6     TEMP =  364.763    
      KODE = 1  NTRIAL =   4  T = 364.7633  P = 1.210000E+06  V =  0.00000      Q =  0.00000    
      NO. TEMP ITER =    6     TEMP =  363.779    
      KODE = 1  NTRIAL =   4  T = 363.7791  P = 1.210000E+06  V =  0.00000      Q =  0.00000    
      NO. TEMP ITER =    6     TEMP =  362.792    
      KODE = 1  NTRIAL =   4  T = 362.7924  P = 1.210000E+06  V =  0.00000      Q =  0.00000    

      BEGIN COLD-TQCURVE INLET   

      BEGIN HOT-TQCURVE  INLET   
      END HEATX TQ-CURVE CALCULATIONS FOR BLOCK E07     

      GENERATING RESULTS FOR UOS BLOCK E08      MODEL: HEATX                      TIME =      4.47
      KODE = 5  NTRIAL =   2  T = 397.1500  P =  225121.      V =  0.00000      Q =  0.00000    
      KODE = 5  NTRIAL =   2  T = 398.1500  P =  232179.      V =  1.00000      Q =  0.00000    
      SPECIFICATION: HOT OUTLET TEMP       423.15    
      FLOW TYPE:     COUNTERCURRENT  
      HOT:  TIN=  461.67  PIN=0.24517E+07   TOUT=  423.15  POUT=0.20000E+07
      COLD: TIN=  397.15  PIN=0.22512E+06   TOUT=  398.15  POUT=0.23218E+06
      AREA= 38.829           DUTY=0.13863E+07       FT=1.00000

      BEGIN HEATX TQ-CURVE CALCULATIONS FOR BLOCK E08     

      BEGIN COLD-TQCURVE INLET   
      NO. TEMP ITER =    5     TEMP =  397.806    
      KODE = 1  NTRIAL =   2  T = 397.8064  P =  225121.      V =  1.00000      Q =  0.00000    
      KODE = 1  NTRIAL =   4  T = 397.1500  P =  225121.      V = 0.952987      Q =  0.00000    
      KODE = 3  NTRIAL =   3  T = 397.1500  P =  225121.      V =  1.00000      Q = -881.039    
      KODE = 1  NTRIAL =   4  T = 397.1500  P =  225121.      V = 0.952987      Q =  0.00000    
      KODE = 1  NTRIAL =   1  T = 397.1500  P =  225121.      V = 0.905337      Q =  0.00000    
      KODE = 1  NTRIAL =   1  T = 397.1500  P =  225121.      V = 0.857688      Q =  0.00000    
      KODE = 1  NTRIAL =   1  T = 397.1500  P =  225121.      V = 0.810039      Q =  0.00000    
      KODE = 1  NTRIAL =   1  T = 397.1500  P =  225121.      V = 0.762389      Q =  0.00000    
      KODE = 1  NTRIAL =   1  T = 397.1500  P =  225121.      V = 0.714740      Q =  0.00000    
      KODE = 1  NTRIAL =   1  T = 397.1500  P =  225121.      V = 0.667091      Q =  0.00000    
      KODE = 1  NTRIAL =   1  T = 397.1500  P =  225121.      V = 0.619441      Q =  0.00000    
      KODE = 1  NTRIAL =   1  T = 397.1500  P =  225121.      V = 0.571792      Q =  0.00000    
      KODE = 1  NTRIAL =   1  T = 397.1500  P =  225121.      V = 0.524143      Q =  0.00000    
      KODE = 1  NTRIAL =   1  T = 397.1500  P =  225121.      V = 0.476493      Q =  0.00000    
      KODE = 1  NTRIAL =   1  T = 397.1500  P =  225121.      V = 0.428844      Q =  0.00000    
      KODE = 1  NTRIAL =   1  T = 397.1500  P =  225121.      V = 0.381195      Q =  0.00000    
      KODE = 1  NTRIAL =   1  T = 397.1500  P =  225121.      V = 0.333545      Q =  0.00000    
      KODE = 1  NTRIAL =   1  T = 397.1500  P =  225121.      V = 0.285896      Q =  0.00000    
      KODE = 1  NTRIAL =   1  T = 397.1500  P =  225121.      V = 0.238247      Q =  0.00000    
      KODE = 1  NTRIAL =   1  T = 397.1500  P =  225121.      V = 0.190597      Q =  0.00000    
      KODE = 1  NTRIAL =   1  T = 397.1500  P =  225121.      V = 0.142948      Q =  0.00000    
      KODE = 1  NTRIAL =   1  T = 397.1500  P =  225121.      V = 9.529865E-02  Q =  0.00000    
      KODE = 1  NTRIAL =   1  T = 397.1500  P =  225121.      V = 4.764932E-02  Q =  0.00000    
      NO. TEMP ITER =    1     TEMP =  397.150    
      KODE = 1  NTRIAL =   1  T = 397.1500  P =  225121.      V =  0.00000      Q =  0.00000    
      KODE = 3  NTRIAL =   3  T = 397.1500  P =  225121.      V =  0.00000      Q =-1.386276E+06
      NO. TEMP ITER =    1     TEMP =  397.150    
      NO. TEMP ITER =    1     TEMP =  397.150    
      NO. TEMP ITER =    1     TEMP =  397.150    
      KODE = 1  NTRIAL =   2  T = 397.1500  P =  225121.      V =  0.00000      Q =  0.00000    

      BEGIN HOT-TQCURVE  INLET   
      NO. TEMP ITER =    5     TEMP =  461.667    
      KODE = 1  NTRIAL =   4  T = 461.6666  P = 2.451662E+06  V =  0.00000      Q =  0.00000    
      NO. TEMP ITER =    6     TEMP =  459.918    
      KODE = 1  NTRIAL =   4  T = 459.9178  P = 2.451662E+06  V =  0.00000      Q =  0.00000    
      NO. TEMP ITER =    6     TEMP =  458.160    
      KODE = 1  NTRIAL =   4  T = 458.1602  P = 2.451662E+06  V =  0.00000      Q =  0.00000    
      NO. TEMP ITER =    6     TEMP =  456.394    
      KODE = 1  NTRIAL =   3  T = 456.3939  P = 2.451662E+06  V =  0.00000      Q =  0.00000    
      NO. TEMP ITER =    6     TEMP =  454.619    
      KODE = 1  NTRIAL =   4  T = 454.6189  P = 2.451662E+06  V =  0.00000      Q =  0.00000    
      NO. TEMP ITER =    6     TEMP =  452.835    
      KODE = 1  NTRIAL =   4  T = 452.8351  P = 2.451662E+06  V =  0.00000      Q =  0.00000    
      NO. TEMP ITER =    6     TEMP =  451.043    
      KODE = 1  NTRIAL =   4  T = 451.0426  P = 2.451662E+06  V =  0.00000      Q =  0.00000    
      NO. TEMP ITER =    6     TEMP =  449.241    
      KODE = 1  NTRIAL =   4  T = 449.2414  P = 2.451662E+06  V =  0.00000      Q =  0.00000    
      NO. TEMP ITER =    6     TEMP =  447.431    
      KODE = 1  NTRIAL =   4  T = 447.4314  P = 2.451662E+06  V =  0.00000      Q =  0.00000    
      NO. TEMP ITER =    6     TEMP =  445.613    
      KODE = 1  NTRIAL =   4  T = 445.6126  P = 2.451662E+06  V =  0.00000      Q =  0.00000    
      NO. TEMP ITER =    6     TEMP =  443.785    
      KODE = 1  NTRIAL =   4  T = 443.7850  P = 2.451662E+06  V =  0.00000      Q =  0.00000    
      NO. TEMP ITER =    6     TEMP =  441.949    
      KODE = 1  NTRIAL =   4  T = 441.9486  P = 2.451662E+06  V =  0.00000      Q =  0.00000    
      NO. TEMP ITER =    6     TEMP =  440.103    
      KODE = 1  NTRIAL =   4  T = 440.1034  P = 2.451662E+06  V =  0.00000      Q =  0.00000    
      NO. TEMP ITER =    6     TEMP =  438.249    
      KODE = 1  NTRIAL =   4  T = 438.2493  P = 2.451662E+06  V =  0.00000      Q =  0.00000    
      NO. TEMP ITER =    6     TEMP =  436.386    
      KODE = 1  NTRIAL =   4  T = 436.3862  P = 2.451662E+06  V =  0.00000      Q =  0.00000    
      NO. TEMP ITER =    6     TEMP =  434.514    
      KODE = 1  NTRIAL =   4  T = 434.5143  P = 2.451662E+06  V =  0.00000      Q =  0.00000    
      NO. TEMP ITER =    6     TEMP =  432.633    
      KODE = 1  NTRIAL =   4  T = 432.6333  P = 2.451662E+06  V =  0.00000      Q =  0.00000    
      NO. TEMP ITER =    6     TEMP =  430.743    
      KODE = 1  NTRIAL =   4  T = 430.7433  P = 2.451662E+06  V =  0.00000      Q =  0.00000    
      NO. TEMP ITER =    6     TEMP =  428.844    
      KODE = 1  NTRIAL =   4  T = 428.8442  P = 2.451662E+06  V =  0.00000      Q =  0.00000    
      NO. TEMP ITER =    6     TEMP =  426.936    
      KODE = 1  NTRIAL =   4  T = 426.9360  P = 2.451662E+06  V =  0.00000      Q =  0.00000    
      NO. TEMP ITER =    6     TEMP =  425.019    
      KODE = 1  NTRIAL =   4  T = 425.0186  P = 2.451662E+06  V =  0.00000      Q =  0.00000    
      NO. TEMP ITER =    6     TEMP =  423.092    
      KODE = 1  NTRIAL =   4  T = 423.0920  P = 2.451662E+06  V =  0.00000      Q =  0.00000    

      BEGIN COLD-TQCURVE INLET   

      BEGIN HOT-TQCURVE  INLET   
      END HEATX TQ-CURVE CALCULATIONS FOR BLOCK E08     

      CHECKING PHASE EQUILIBRIUM RESULTS                                          TIME =      4.48

      CHECKING PHASE EQUILIBRIUM RESULTS                                          TIME =      4.48

      BEGIN HEATX TQ-CURVE REPORT FOR BLOCK E04     

      BEGIN COLD-TQCURVE INLET   

      BEGIN HOT-TQCURVE  INLET   
      END HEATX TQ-CURVE REPORT FOR BLOCK E04     
      KODE = 5  NTRIAL =   2  T = 397.1500  P =  225121.      V =  0.00000      Q =  0.00000    
      KODE = 5  NTRIAL =   2  T = 398.1500  P =  232179.      V =  1.00000      Q =  0.00000    

      BEGIN HEATX TQ-CURVE REPORT FOR BLOCK E08     

      BEGIN COLD-TQCURVE INLET   

      BEGIN HOT-TQCURVE  INLET   
      END HEATX TQ-CURVE REPORT FOR BLOCK E08     

      BEGIN HEATX TQ-CURVE REPORT FOR BLOCK E01     

      BEGIN COLD-TQCURVE INLET   

      BEGIN HOT-TQCURVE  INLET   
      END HEATX TQ-CURVE REPORT FOR BLOCK E01     

      BEGIN HEATX TQ-CURVE REPORT FOR BLOCK E02     

      BEGIN COLD-TQCURVE INLET   

      BEGIN HOT-TQCURVE  INLET   
      END HEATX TQ-CURVE REPORT FOR BLOCK E02     

      BEGIN HEATX TQ-CURVE REPORT FOR BLOCK E05     

      BEGIN COLD-TQCURVE INLET   

      BEGIN HOT-TQCURVE  INLET   
      END HEATX TQ-CURVE REPORT FOR BLOCK E05     
      KODE = 2  NTRIAL =   1  T = 288.1500  P =  101325.      V =  0.00000      Q =  0.00000    
      KODE = 2  NTRIAL =   1  T = 293.1500  P =  101325.      V =  0.00000      Q =  0.00000    

      BEGIN HEATX TQ-CURVE REPORT FOR BLOCK E06     

      BEGIN COLD-TQCURVE INLET   

      BEGIN HOT-TQCURVE  INLET   
      END HEATX TQ-CURVE REPORT FOR BLOCK E06     
      KODE = 2  NTRIAL =   1  T = 288.1500  P =  101325.      V =  0.00000      Q =  0.00000    
      KODE = 2  NTRIAL =   1  T = 293.1500  P =  101325.      V =  0.00000      Q =  0.00000    

      BEGIN HEATX TQ-CURVE REPORT FOR BLOCK E07     

      BEGIN COLD-TQCURVE INLET   

      BEGIN HOT-TQCURVE  INLET   
      END HEATX TQ-CURVE REPORT FOR BLOCK E07     
