
 + + + + + + + + + + + + + + + + + + + + + + + + + + + + + + + + + + + + + + + +
 + + + + + + + + + + + + + + + + + + + + + + + + + + + + + + + + + + + + + + + +
 + +                                                                         + +
 + +                      ASPEN PLUS CALCULATION HISTORY                     + +
 + +                                                                         + +
 + + + + + + + + + + + + + + + + + + + + + + + + + + + + + + + + + + + + + + + +
 + + + + + + + + + + + + + + + + + + + + + + + + + + + + + + + + + + + + + + + +

 ASPEN PLUS IS A TRADEMARK OF           HOTLINE:
 ASPEN TECHNOLOGY, INC.                 U.S.A. 888/996-7100
 781/221-6400                           EUROPE (44) 1189-226555

 PLATFORM: WIN-X64                                       SEPTEMBER 19, 2025  
 VERSION: 41.0   Build 609                               FRIDAY      
 INSTALLATION:                                           5:23:32 P.M.        

 THIS COPY OF ASPEN PLUS LICENSED TO UNIVERSITY OF SEOUL             


      ASPEN PLUS (R) IS A PROPRIETARY PRODUCT OF ASPEN TECHNOLOGY, INC.
      (ASPENTECH), AND MAY BE USED ONLY UNDER AGREEMENT WITH ASPENTECH.
      RESTRICTED RIGHTS LEGEND:  USE, REPRODUCTION, OR DISCLOSURE BY THE
      U.S. GOVERNMENT IS SUBJECT TO RESTRICTIONS SET FORTH IN 
      (i) FAR 52.227-14, Alt. III, (ii) FAR 52.227-19, (iii) DFARS 
      252.227-7013(c)(1)(ii), or (iv) THE ACCOMPANYING LICENSE AGREEMENT,
      AS APPLICABLE. FOR PURPOSES OF THE FAR, THIS SOFTWARE SHALL BE DEEMED
      TO BE "UNPUBLISHED" AND LICENSED WITH DISCLOSURE PROHIBITIONS.
      CONTRACTOR/SUBCONTRACTOR: ASPEN TECHNOLOGY, INC. 20 CROSBY DRIVE,
      BEDFORD, MA 01730.
 *** INPUT SUMMARY ***

 >>CURRENT RUN

   ORIGINAL RUN                           SEPTEMBER 19, 2025  
   5:23:32 P.M.                           FRIDAY      
   INPUT FILE: _1932qik.inm
   RUN ID : _1932qik
          1    ;
          2    ;Input file created by Aspen Plus Rel. 41.0 at 17:23:31 Fri Sep 19, 2025
          3    ;Directory c:\Users\zkjxc\Documents\API_project_v2\refactored  Runid EQUIPMENT_COST_ESTIMATION_ASPEN
          4    ;
          5
          6
          7    DYNAMICS
          8        DYNAMICS RESULTS=ON
          9
         10    IN-UNITS SI ENTHALPY='J/kg' FLOW='kg/hr' MASS-FLOW='tonne/day'  &
         11            MOLE-FLOW='kmol/hr' VOLUME-FLOW='cum/hr'  &
         12            ENTHALPY-FLO='kJ/hr' PRESSURE=bar TEMPERATURE=C DELTA-T=C  &
         13            MOLE-ENTHALP='kJ/kmol' MASS-ENTHALP='kJ/kg' HEAT=kJ  &
         14            PDROP=bar HEAT-FLUX='kW/m' VOL-ENTHALPY='kJ/cum'  &
         15            SHORT-LENGTH=mm
         16
         17    DEF-STREAMS CONVEN ALL
         18
         19    SIM-OPTIONS MASS-BAL-CHE=YES FLASH-TOLFAC=1.0
         20
         21    MODEL-OPTION
         22
         23    DESCRIPTION "
         24        General Simulation with Metric Units :
         25        C, bar, kg/hr, kmol/hr, Gcal/hr, cum/hr.
         26
         27        Property Method: None
         28
         29        Flow basis for input: Mole
         30
         31        Stream report composition: Mole flow
         32        "
         33
         34    DATABANKS 'APV150 PURE40' / 'APV150 AQUEOUS' / 'APV150 SOLIDS' &
         35             / 'APV150 INORGANIC' / 'APV150 BIODIESEL' /  &
         36            'NISTV150 NIST-TRC' / NOASPENPCD
         37
         38    PROP-SOURCES 'APV150 PURE40' / 'APV150 AQUEOUS' /  &
         39            'APV150 SOLIDS' / 'APV150 INORGANIC' / 'APV150 BIODIESEL' &
         40             / 'NISTV150 NIST-TRC'
         41
         42    COMPONENTS
         43        TG16:0 C51H98O6 /
         44        TG18:0 C57H110O6 /
         45        TG18:1 C57H104O6 /
         46        TG18:2 C57H98O6 /
         47        TG18:3 C57H92O6 /
         48        FA16:0 C16H32O2 /
         49        FA18:0 C18H36O2 /
         50        FA18:1 C18H34O2 /
         51        FA18:2 C18H32O2 /
         52        FA18:3 C18H30O2 /
         53        H2O H2O /
         54        H2 H2 /
         55        N2 N2 /
         56        O2 O2 /
         57        CO CO /
         58        CO2 CO2 /
         59        METHA-01 CH4 /
         60        ETHAN-02 C2H6 /
         61        PROPA-03 C3H8 /
         62        ISOBU-04 C4H10-2 /
         63        N-BUT-04 C4H10-1 /
         64        I-PEN-05 C5H12-2 /
         65        N-PEN-05 C5H12-1 /
         66        I-HEX-06 C6H14-2 /
         67        N-HEX-06 C6H14-1 /
         68        I-HEP-07 C7H16-2 /
         69        N-HEP-07 C7H16-1 /
         70        I-OCT-08 C8H18-2 /
         71        N-OCT-08 C8H18-1 /
         72        I-NON-09 C9H20-D1 /
         73        N-NON-09 C9H20-1 /
         74        I-DEC-10 C10H22-E2 /
         75        N-DEC-10 C10H22-1 /
         76        I-UND-11 C11H24-N5 /
         77        N-UND-11 C11H24 /
         78        I-DOD-12 C12H26-N9 /
         79        N-DOD-12 C12H26 /
         80        I-TRI-13 C13H28-N1 /
         81        N-TRI-13 C13H28 /
         82        I-TET-14 C14H30-N1 /
         83        N-TET-14 C14H30 /
         84        I-PEN-15 C15H32-N1 /
         85        N-PEN-15 C15H32 /
         86        I-HEX-16 C16H34-N1 /
         87        N-HEX-16 C16H34 /
         88        I-HEP-17 C17H36-N1 /
         89        N-HEP-17 C17H36 /
         90        I-OCT-18 C18H38-N1 /
         91        N-OCT-18 C18H38
         92
         93    SOLVE
         94        RUN-MODE MODE=SIM
         95
         96    FLOWSHEET
         97        BLOCK 01PUMP IN=01 OUT=02
         98        BLOCK 05HDO-RE IN=06 05 OUT=07 HEATHDO
         99        BLOCK 06REQUIL IN=07 OUT=08 09
        100        BLOCK 11HEX IN=14 OUT=15
        101        BLOCK 13SEP IN=16 OUT=18 17 19
        102        BLOCK 08MIXER IN=08 09 OUT=10
        103        BLOCK 15ABS IN=18 OUT=20 21
        104        BLOCK 22HEX IN=35 OUT=36
        105        BLOCK 23SEP IN=36 OUT=37 38
        106        BLOCK 25PSA IN=37 OUT=47 44
        107        BLOCK 17HCC-RE IN=25 29 OUT=30
        108        BLOCK 29MIXER IN=47 21 46 OUT=48
        109        BLOCK 30SPLIT IN=48 OUT=51 49
        110        BLOCK 28COMP IN=45 OUT=46
        111        BLOCK 31COMP IN=49 OUT=50
        112        BLOCK 32VALVE IN=20 OUT=52
        113        BLOCK 33MIXER IN=53 52 OUT=54
        114        BLOCK 34COMB IN=54 OUT=55 HEATCOMB
        115        BLOCK 12VALVE IN=15 OUT=16
        116        BLOCK 35HEX IN=55 OUT=56
        117        BLOCK 26DISTIL IN=39 OUT=40 41
        118        BLOCK 24VALVE IN=38 OUT=39
        119        BLOCK 04HEX IN=04 OUT=05
        120        BLOCK 21HEX IN=32 OUT=33 HEAT27
        121        BLOCK 07SPLIT IN=HEATHDO OUT=HEAT20 HEAT26
        122        BLOCK 27DISTIL IN=40 OUT=42 43
        123        BLOCK 20HEX IN=28 HEAT20 OUT=29
        124        BLOCK 36SPLIT IN=HEATCOMB OUT=HEAT04 HEAT06 HEAT17 REMAIN
        125        BLOCK B1 IN=11-ED 03-ED OUT=S2 S1
        126        BLOCK B3 IN=S3 OUT=S4
        127        BLOCK B4 IN=S5 OUT=S6
        128        BLOCK B5 IN=03-ED2 OUT=S7
        129        BLOCK 03HEX IN=11 03 OUT=12 04
        130        BLOCK 02HEX IN=13 02 OUT=14 03
        131        BLOCK 10HEX IN=12 22 OUT=13 23
        132        BLOCK 09HEX IN=10 24 OUT=11 25
        133        BLOCK 14HEX IN=34 19 OUT=35 22
        134        BLOCK 18HEX IN=33 26 OUT=34 27
        135        BLOCK 19HEX IN=31 27 OUT=32 28
        136        BLOCK 15HEX IN=30 23 OUT=31 24
        137
        138    PROPERTIES PENG-ROB
        139        PROPERTIES UNIFAC / UNIQ-2
        140
        141    PROP-DATA PRKBV-1
        142        IN-UNITS SI ENTHALPY='J/kg' FLOW='kg/hr'  &
        143            MASS-FLOW='tonne/day' MOLE-FLOW='kmol/hr'  &
        144            VOLUME-FLOW='cum/hr' ENTHALPY-FLO='kJ/hr' PRESSURE=bar  &
        145            TEMPERATURE=C DELTA-T=C MOLE-ENTHALP='kJ/kmol'  &
        146            MASS-ENTHALP='kJ/kg' HEAT=kJ PDROP=bar HEAT-FLUX='kW/m'  &
        147            VOL-ENTHALPY='kJ/cum' SHORT-LENGTH=mm
        148        PROP-LIST PRKBV
        149        BPVAL H2O CO2 .1200000000 0.0 0.0 -273.1500000 726.8500000
        150        BPVAL CO2 H2O .1200000000 0.0 0.0 -273.1500000 726.8500000
        151        BPVAL H2 CO .0919000000 0.0 0.0 -273.1500000 726.8500000
        152        BPVAL CO H2 .0919000000 0.0 0.0 -273.1500000 726.8500000
        153        BPVAL H2 CO2 -.1622000000 0.0 0.0 -273.1500000 726.8500000
        154        BPVAL CO2 H2 -.1622000000 0.0 0.0 -273.1500000 726.8500000
        155        BPVAL H2 METHA-01 .0156000000 0.0 0.0 -273.1500000  &
        156            726.8500000
        157        BPVAL METHA-01 H2 .0156000000 0.0 0.0 -273.1500000  &
        158            726.8500000
        159        BPVAL H2 ETHAN-02 -.0667000000 0.0 0.0 -273.1500000  &
        160            726.8500000
        161        BPVAL ETHAN-02 H2 -.0667000000 0.0 0.0 -273.1500000  &
        162            726.8500000
        163        BPVAL H2 PROPA-03 -.0833000000 0.0 0.0 -273.1500000  &
        164            726.8500000
        165        BPVAL PROPA-03 H2 -.0833000000 0.0 0.0 -273.1500000  &
        166            726.8500000
        167        BPVAL H2 N-BUT-04 -.3970000000 0.0 0.0 -273.1500000  &
        168            726.8500000
        169        BPVAL N-BUT-04 H2 -.3970000000 0.0 0.0 -273.1500000  &
        170            726.8500000
        171        BPVAL H2 N-HEX-06 -.0300000000 0.0 0.0 -273.1500000  &
        172            726.8500000
        173        BPVAL N-HEX-06 H2 -.0300000000 0.0 0.0 -273.1500000  &
        174            726.8500000
        175        BPVAL H2 N-HEP-07 -.1167000000 0.0 0.0 -273.1500000  &
        176            726.8500000
        177        BPVAL N-HEP-07 H2 -.1167000000 0.0 0.0 -273.1500000  &
        178            726.8500000
        179        BPVAL CO METHA-01 .0300000000 0.0 0.0 -273.1500000  &
        180            726.8500000
        181        BPVAL METHA-01 CO .0300000000 0.0 0.0 -273.1500000  &
        182            726.8500000
        183        BPVAL CO ETHAN-02 -.0226000000 0.0 0.0 -273.1500000  &
        184            726.8500000
        185        BPVAL ETHAN-02 CO -.0226000000 0.0 0.0 -273.1500000  &
        186            726.8500000
        187        BPVAL CO PROPA-03 .0259000000 0.0 0.0 -273.1500000  &
        188            726.8500000
        189        BPVAL PROPA-03 CO .0259000000 0.0 0.0 -273.1500000  &
        190            726.8500000
        191        BPVAL CO2 METHA-01 .0919000000 0.0 0.0 -273.1500000  &
        192            726.8500000
        193        BPVAL METHA-01 CO2 .0919000000 0.0 0.0 -273.1500000  &
        194            726.8500000
        195        BPVAL CO2 ETHAN-02 .1322000000 0.0 0.0 -273.1500000  &
        196            726.8500000
        197        BPVAL ETHAN-02 CO2 .1322000000 0.0 0.0 -273.1500000  &
        198            726.8500000
        199        BPVAL CO2 PROPA-03 .1241000000 0.0 0.0 -273.1500000  &
        200            726.8500000
        201        BPVAL PROPA-03 CO2 .1241000000 0.0 0.0 -273.1500000  &
        202            726.8500000
        203        BPVAL CO2 ISOBU-04 .1200000000 0.0 0.0 -273.1500000  &
        204            726.8500000
        205        BPVAL ISOBU-04 CO2 .1200000000 0.0 0.0 -273.1500000  &
        206            726.8500000
        207        BPVAL CO2 N-BUT-04 .1333000000 0.0 0.0 -273.1500000  &
        208            726.8500000
        209        BPVAL N-BUT-04 CO2 .1333000000 0.0 0.0 -273.1500000  &
        210            726.8500000
        211        BPVAL CO2 I-PEN-05 .1219000000 0.0 0.0 -273.1500000  &
        212            726.8500000
        213        BPVAL I-PEN-05 CO2 .1219000000 0.0 0.0 -273.1500000  &
        214            726.8500000
        215        BPVAL CO2 N-PEN-05 .1222000000 0.0 0.0 -273.1500000  &
        216            726.8500000
        217        BPVAL N-PEN-05 CO2 .1222000000 0.0 0.0 -273.1500000  &
        218            726.8500000
        219        BPVAL CO2 N-HEX-06 .1100000000 0.0 0.0 -273.1500000  &
        220            726.8500000
        221        BPVAL N-HEX-06 CO2 .1100000000 0.0 0.0 -273.1500000  &
        222            726.8500000
        223        BPVAL CO2 N-HEP-07 .1000000000 0.0 0.0 -273.1500000  &
        224            726.8500000
        225        BPVAL N-HEP-07 CO2 .1000000000 0.0 0.0 -273.1500000  &
        226            726.8500000
        227        BPVAL CO2 N-DEC-10 .1141000000 0.0 0.0 -273.1500000  &
        228            726.8500000
        229        BPVAL N-DEC-10 CO2 .1141000000 0.0 0.0 -273.1500000  &
        230            726.8500000
        231        BPVAL METHA-01 ETHAN-02 -2.6000000E-3 0.0 0.0 -273.1500000  &
        232            726.8500000
        233        BPVAL ETHAN-02 METHA-01 -2.6000000E-3 0.0 0.0 -273.1500000  &
        234            726.8500000
        235        BPVAL METHA-01 PROPA-03 .0140000000 0.0 0.0 -273.1500000  &
        236            726.8500000
        237        BPVAL PROPA-03 METHA-01 .0140000000 0.0 0.0 -273.1500000  &
        238            726.8500000
        239        BPVAL METHA-01 ISOBU-04 .0256000000 0.0 0.0 -273.1500000  &
        240            726.8500000
        241        BPVAL ISOBU-04 METHA-01 .0256000000 0.0 0.0 -273.1500000  &
        242            726.8500000
        243        BPVAL METHA-01 N-BUT-04 .0133000000 0.0 0.0 -273.1500000  &
        244            726.8500000
        245        BPVAL N-BUT-04 METHA-01 .0133000000 0.0 0.0 -273.1500000  &
        246            726.8500000
        247        BPVAL METHA-01 I-PEN-05 -5.6000000E-3 0.0 0.0 -273.1500000  &
        248            726.8500000
        249        BPVAL I-PEN-05 METHA-01 -5.6000000E-3 0.0 0.0 -273.1500000  &
        250            726.8500000
        251        BPVAL METHA-01 N-PEN-05 .0230000000 0.0 0.0 -273.1500000  &
        252            726.8500000
        253        BPVAL N-PEN-05 METHA-01 .0230000000 0.0 0.0 -273.1500000  &
        254            726.8500000
        255        BPVAL METHA-01 N-HEX-06 .0422000000 0.0 0.0 -273.1500000  &
        256            726.8500000
        257        BPVAL N-HEX-06 METHA-01 .0422000000 0.0 0.0 -273.1500000  &
        258            726.8500000
        259        BPVAL METHA-01 N-HEP-07 .0352000000 0.0 0.0 -273.1500000  &
        260            726.8500000
        261        BPVAL N-HEP-07 METHA-01 .0352000000 0.0 0.0 -273.1500000  &
        262            726.8500000
        263        BPVAL METHA-01 N-OCT-08 .0496000000 0.0 0.0 -273.1500000  &
        264            726.8500000
        265        BPVAL N-OCT-08 METHA-01 .0496000000 0.0 0.0 -273.1500000  &
        266            726.8500000
        267        BPVAL METHA-01 N-NON-09 .0474000000 0.0 0.0 -273.1500000  &
        268            726.8500000
        269        BPVAL N-NON-09 METHA-01 .0474000000 0.0 0.0 -273.1500000  &
        270            726.8500000
        271        BPVAL METHA-01 N-DEC-10 .0422000000 0.0 0.0 -273.1500000  &
        272            726.8500000
        273        BPVAL N-DEC-10 METHA-01 .0422000000 0.0 0.0 -273.1500000  &
        274            726.8500000
        275        BPVAL ETHAN-02 PROPA-03 1.10000000E-3 0.0 0.0 -273.1500000  &
        276            726.8500000
        277        BPVAL PROPA-03 ETHAN-02 1.10000000E-3 0.0 0.0 -273.1500000  &
        278            726.8500000
        279        BPVAL ETHAN-02 ISOBU-04 -6.7000000E-3 0.0 0.0 -273.1500000  &
        280            726.8500000
        281        BPVAL ISOBU-04 ETHAN-02 -6.7000000E-3 0.0 0.0 -273.1500000  &
        282            726.8500000
        283        BPVAL ETHAN-02 N-BUT-04 9.60000000E-3 0.0 0.0 -273.1500000  &
        284            726.8500000
        285        BPVAL N-BUT-04 ETHAN-02 9.60000000E-3 0.0 0.0 -273.1500000  &
        286            726.8500000
        287        BPVAL ETHAN-02 N-PEN-05 7.80000000E-3 0.0 0.0 -273.1500000  &
        288            726.8500000
        289        BPVAL N-PEN-05 ETHAN-02 7.80000000E-3 0.0 0.0 -273.1500000  &
        290            726.8500000
        291        BPVAL ETHAN-02 N-HEX-06 -.0100000000 0.0 0.0 -273.1500000  &
        292            726.8500000
        293        BPVAL N-HEX-06 ETHAN-02 -.0100000000 0.0 0.0 -273.1500000  &
        294            726.8500000
        295        BPVAL ETHAN-02 N-HEP-07 6.70000000E-3 0.0 0.0 -273.1500000  &
        296            726.8500000
        297        BPVAL N-HEP-07 ETHAN-02 6.70000000E-3 0.0 0.0 -273.1500000  &
        298            726.8500000
        299        BPVAL ETHAN-02 N-OCT-08 .0185000000 0.0 0.0 -273.1500000  &
        300            726.8500000
        301        BPVAL N-OCT-08 ETHAN-02 .0185000000 0.0 0.0 -273.1500000  &
        302            726.8500000
        303        BPVAL ETHAN-02 N-DEC-10 .0144000000 0.0 0.0 -273.1500000  &
        304            726.8500000
        305        BPVAL N-DEC-10 ETHAN-02 .0144000000 0.0 0.0 -273.1500000  &
        306            726.8500000
        307        BPVAL PROPA-03 ISOBU-04 -7.8000000E-3 0.0 0.0 -273.1500000  &
        308            726.8500000
        309        BPVAL ISOBU-04 PROPA-03 -7.8000000E-3 0.0 0.0 -273.1500000  &
        310            726.8500000
        311        BPVAL PROPA-03 N-BUT-04 3.30000000E-3 0.0 0.0 -273.1500000  &
        312            726.8500000
        313        BPVAL N-BUT-04 PROPA-03 3.30000000E-3 0.0 0.0 -273.1500000  &
        314            726.8500000
        315        BPVAL PROPA-03 I-PEN-05 .0111000000 0.0 0.0 -273.1500000  &
        316            726.8500000
        317        BPVAL I-PEN-05 PROPA-03 .0111000000 0.0 0.0 -273.1500000  &
        318            726.8500000
        319        BPVAL PROPA-03 N-PEN-05 .0267000000 0.0 0.0 -273.1500000  &
        320            726.8500000
        321        BPVAL N-PEN-05 PROPA-03 .0267000000 0.0 0.0 -273.1500000  &
        322            726.8500000
        323        BPVAL PROPA-03 N-HEX-06 7.00000000E-4 0.0 0.0 -273.1500000  &
        324            726.8500000
        325        BPVAL N-HEX-06 PROPA-03 7.00000000E-4 0.0 0.0 -273.1500000  &
        326            726.8500000
        327        BPVAL PROPA-03 N-HEP-07 5.60000000E-3 0.0 0.0 -273.1500000  &
        328            726.8500000
        329        BPVAL N-HEP-07 PROPA-03 5.60000000E-3 0.0 0.0 -273.1500000  &
        330            726.8500000
        331        BPVAL PROPA-03 N-DEC-10 0.0 0.0 0.0 -273.1500000  &
        332            726.8500000
        333        BPVAL N-DEC-10 PROPA-03 0.0 0.0 0.0 -273.1500000  &
        334            726.8500000
        335        BPVAL ISOBU-04 N-BUT-04 -4.0000000E-4 0.0 0.0 -273.1500000  &
        336            726.8500000
        337        BPVAL N-BUT-04 ISOBU-04 -4.0000000E-4 0.0 0.0 -273.1500000  &
        338            726.8500000
        339        BPVAL N-BUT-04 I-PEN-05 2.92000000E-3 0.0 0.0 -273.1500000  &
        340            726.8500000
        341        BPVAL I-PEN-05 N-BUT-04 2.92000000E-3 0.0 0.0 -273.1500000  &
        342            726.8500000
        343        BPVAL N-BUT-04 N-PEN-05 .0174000000 0.0 0.0 -273.1500000  &
        344            726.8500000
        345        BPVAL N-PEN-05 N-BUT-04 .0174000000 0.0 0.0 -273.1500000  &
        346            726.8500000
        347        BPVAL N-BUT-04 N-HEX-06 -5.6000000E-3 0.0 0.0 -273.1500000  &
        348            726.8500000
        349        BPVAL N-HEX-06 N-BUT-04 -5.6000000E-3 0.0 0.0 -273.1500000  &
        350            726.8500000
        351        BPVAL N-BUT-04 N-HEP-07 3.30000000E-3 0.0 0.0 -273.1500000  &
        352            726.8500000
        353        BPVAL N-HEP-07 N-BUT-04 3.30000000E-3 0.0 0.0 -273.1500000  &
        354            726.8500000
        355        BPVAL N-BUT-04 N-DEC-10 7.80000000E-3 0.0 0.0 -273.1500000  &
        356            726.8500000
        357        BPVAL N-DEC-10 N-BUT-04 7.80000000E-3 0.0 0.0 -273.1500000  &
        358            726.8500000
        359        BPVAL I-PEN-05 N-PEN-05 0.0 0.0 0.0 -273.1500000  &
        360            726.8500000
        361        BPVAL N-PEN-05 I-PEN-05 0.0 0.0 0.0 -273.1500000  &
        362            726.8500000
        363        BPVAL N-PEN-05 N-HEP-07 7.40000000E-3 0.0 0.0 -273.1500000  &
        364            726.8500000
        365        BPVAL N-HEP-07 N-PEN-05 7.40000000E-3 0.0 0.0 -273.1500000  &
        366            726.8500000
        367        BPVAL N-PEN-05 N-OCT-08 0.0 0.0 0.0 -273.1500000  &
        368            726.8500000
        369        BPVAL N-OCT-08 N-PEN-05 0.0 0.0 0.0 -273.1500000  &
        370            726.8500000
        371        BPVAL N-HEX-06 N-HEP-07 -7.8000000E-3 0.0 0.0 -273.1500000  &
        372            726.8500000
        373        BPVAL N-HEP-07 N-HEX-06 -7.8000000E-3 0.0 0.0 -273.1500000  &
        374            726.8500000
        375        BPVAL N-HEP-07 I-OCT-08 4.00000000E-4 0.0 0.0 -273.1500000  &
        376            726.8500000
        377        BPVAL I-OCT-08 N-HEP-07 4.00000000E-4 0.0 0.0 -273.1500000  &
        378            726.8500000
        379        BPVAL H2 N2 .1030000000 0.0 0.0 -273.1500000 726.8500000
        380        BPVAL N2 H2 .1030000000 0.0 0.0 -273.1500000 726.8500000
        381        BPVAL CO N2 .0307000000 0.0 0.0 -273.1500000 726.8500000
        382        BPVAL N2 CO .0307000000 0.0 0.0 -273.1500000 726.8500000
        383        BPVAL CO2 N2 -.0170000000 0.0 0.0 -273.1500000 726.8500000
        384        BPVAL N2 CO2 -.0170000000 0.0 0.0 -273.1500000 726.8500000
        385        BPVAL METHA-01 N2 .0311000000 0.0 0.0 -273.1500000  &
        386            726.8500000
        387        BPVAL N2 METHA-01 .0311000000 0.0 0.0 -273.1500000  &
        388            726.8500000
        389        BPVAL ETHAN-02 N2 .0515000000 0.0 0.0 -273.1500000  &
        390            726.8500000
        391        BPVAL N2 ETHAN-02 .0515000000 0.0 0.0 -273.1500000  &
        392            726.8500000
        393        BPVAL PROPA-03 N2 .0852000000 0.0 0.0 -273.1500000  &
        394            726.8500000
        395        BPVAL N2 PROPA-03 .0852000000 0.0 0.0 -273.1500000  &
        396            726.8500000
        397        BPVAL ISOBU-04 N2 .1033000000 0.0 0.0 -273.1500000  &
        398            726.8500000
        399        BPVAL N2 ISOBU-04 .1033000000 0.0 0.0 -273.1500000  &
        400            726.8500000
        401        BPVAL N-BUT-04 N2 .0800000000 0.0 0.0 -273.1500000  &
        402            726.8500000
        403        BPVAL N2 N-BUT-04 .0800000000 0.0 0.0 -273.1500000  &
        404            726.8500000
        405        BPVAL I-PEN-05 N2 .0922000000 0.0 0.0 -273.1500000  &
        406            726.8500000
        407        BPVAL N2 I-PEN-05 .0922000000 0.0 0.0 -273.1500000  &
        408            726.8500000
        409        BPVAL N-PEN-05 N2 .1000000000 0.0 0.0 -273.1500000  &
        410            726.8500000
        411        BPVAL N2 N-PEN-05 .1000000000 0.0 0.0 -273.1500000  &
        412            726.8500000
        413        BPVAL N-HEX-06 N2 .1496000000 0.0 0.0 -273.1500000  &
        414            726.8500000
        415        BPVAL N2 N-HEX-06 .1496000000 0.0 0.0 -273.1500000  &
        416            726.8500000
        417        BPVAL N-HEP-07 N2 .1441000000 0.0 0.0 -273.1500000  &
        418            726.8500000
        419        BPVAL N2 N-HEP-07 .1441000000 0.0 0.0 -273.1500000  &
        420            726.8500000
        421        BPVAL N-OCT-08 N2 -.4100000000 0.0 0.0 -273.1500000  &
        422            726.8500000
        423        BPVAL N2 N-OCT-08 -.4100000000 0.0 0.0 -273.1500000  &
        424            726.8500000
        425        BPVAL N-DEC-10 N2 .1122000000 0.0 0.0 -273.1500000  &
        426            726.8500000
        427        BPVAL N2 N-DEC-10 .1122000000 0.0 0.0 -273.1500000  &
        428            726.8500000
        429        BPVAL O2 N2 -.0119000000 0.0 0.0 -273.1500000 726.8500000
        430        BPVAL N2 O2 -.0119000000 0.0 0.0 -273.1500000 726.8500000
        431
        432    PROP-DATA UNIQ-2
        433        IN-UNITS SI ENTHALPY='J/kg' FLOW='kg/hr'  &
        434            MASS-FLOW='tonne/day' MOLE-FLOW='kmol/hr'  &
        435            VOLUME-FLOW='cum/hr' ENTHALPY-FLO='kJ/hr' PRESSURE=bar  &
        436            TEMPERATURE=C DELTA-T=C MOLE-ENTHALP='kJ/kmol'  &
        437            MASS-ENTHALP='kJ/kg' HEAT=kJ PDROP=bar HEAT-FLUX='kW/m'  &
        438            VOL-ENTHALPY='kJ/cum' SHORT-LENGTH=mm
        439        PROP-LIST UNIQ 2
        440        BPVAL TG18:1 N-HEX-06 0.0 -262.5604000 0.0 0.0 45.00000000  &
        441            45.00000000 0.0
        442        BPVAL N-HEX-06 TG18:1 0.0 130.2569000 0.0 0.0 45.00000000  &
        443            45.00000000 0.0
        444        BPVAL TG18:1 N-HEP-07 0.0 42.51900000 0.0 0.0 20.00000000  &
        445            40.00000000 0.0
        446        BPVAL N-HEP-07 TG18:1 0.0 -94.72200000 0.0 0.0 20.00000000  &
        447            40.00000000 0.0
        448        BPVAL FA18:1 N-HEX-06 0.0 -144.9627000 0.0 0.0 45.00000000  &
        449            45.00000000 0.0
        450        BPVAL N-HEX-06 FA18:1 0.0 52.52850000 0.0 0.0 45.00000000  &
        451            45.00000000 0.0
        452        BPVAL H2O I-PEN-05 0.0 -592.0400000 0.0 0.0 20.00000000  &
        453            40.00000000 0.0
        454        BPVAL I-PEN-05 H2O 0.0 -1336.600000 0.0 0.0 20.00000000  &
        455            40.00000000 0.0
        456        BPVAL H2O N-PEN-05 0.0 -607.9900000 0.0 0.0 20.00000000  &
        457            40.00000000 0.0
        458        BPVAL N-PEN-05 H2O 0.0 -1340.700000 0.0 0.0 20.00000000  &
        459            40.00000000 0.0
        460        BPVAL H2O I-HEX-06 0.0 -565.9700000 0.0 0.0 20.00000000  &
        461            40.00000000 0.0
        462        BPVAL I-HEX-06 H2O 0.0 -1369.700000 0.0 0.0 20.00000000  &
        463            40.00000000 0.0
        464        BPVAL H2O N-HEX-06 0.0 -572.5100000 0.0 0.0 20.00000000  &
        465            40.00000000 0.0
        466        BPVAL N-HEX-06 H2O 0.0 -1297.100000 0.0 0.0 20.00000000  &
        467            40.00000000 0.0
        468        BPVAL H2O I-HEP-07 3.437400000 -1103.774500 0.0 0.0  &
        469            10.00000000 30.00000000 0.0
        470        BPVAL I-HEP-07 H2O 4.150300000 -2697.647500 0.0 0.0  &
        471            10.00000000 30.00000000 0.0
        472        BPVAL H2O N-HEP-07 0.0 -575.8500000 0.0 0.0 20.00000000  &
        473            40.00000000 0.0
        474        BPVAL N-HEP-07 H2O 0.0 -1283.200000 0.0 0.0 20.00000000  &
        475            40.00000000 0.0
        476        BPVAL H2O N-OCT-08 0.0 -567.2900000 0.0 0.0 20.00000000  &
        477            40.00000000 0.0
        478        BPVAL N-OCT-08 H2O 0.0 -1271.400000 0.0 0.0 20.00000000  &
        479            40.00000000 0.0
        480        BPVAL H2O I-NON-09 2.804900000 -827.0643000 0.0 0.0  &
        481            10.00000000 30.00000000 0.0
        482        BPVAL I-NON-09 H2O 2.855700000 -2405.657700 0.0 0.0  &
        483            10.00000000 30.00000000 0.0
        484        BPVAL H2O N-NON-09 0.0 -206.3300000 0.0 0.0 20.00000000  &
        485            40.00000000 0.0
        486        BPVAL N-NON-09 H2O 0.0 -1137.000000 0.0 0.0 20.00000000  &
        487            40.00000000 0.0
        488        BPVAL H2O N-DEC-10 0.0 -348.6600000 0.0 0.0 20.00000000  &
        489            40.00000000 0.0
        490        BPVAL N-DEC-10 H2O 0.0 -762.3700000 0.0 0.0 20.00000000  &
        491            40.00000000 0.0
        492        BPVAL H2O N-UND-11 -2.579064000 415.3037000 0.0 0.0  &
        493            25.00000000 40.00000000 0.0
        494        BPVAL N-UND-11 H2O 4.965004000 -2908.187000 0.0 0.0  &
        495            25.00000000 40.00000000 0.0
        496        BPVAL H2O N-DOD-12 -2.514674000 442.6357000 0.0 0.0  &
        497            25.00000000 40.00000000 0.0
        498        BPVAL N-DOD-12 H2O 5.521921000 -3097.699000 0.0 0.0  &
        499            25.00000000 40.00000000 0.0
        500        BPVAL H2O N-TRI-13 0.0 -258.9100000 0.0 0.0 20.00000000  &
        501            40.00000000 0.0
        502        BPVAL N-TRI-13 H2O 0.0 -587.8800000 0.0 0.0 20.00000000  &
        503            40.00000000 0.0
        504        BPVAL H2O N-TET-14 -2.372590000 474.1810000 0.0 0.0  &
        505            40.00000000 40.00000000 0.0
        506        BPVAL N-TET-14 H2O 5.593697000 -3165.496000 0.0 0.0  &
        507            40.00000000 40.00000000 0.0
        508        BPVAL H2O N-HEX-16 -2.190925000 475.6788000 0.0 0.0  &
        509            20.00000000 50.00000000 0.0
        510        BPVAL N-HEX-16 H2O 5.359113000 -3134.186000 0.0 0.0  &
        511            20.00000000 50.00000000 0.0
        512        BPVAL N-BUT-04 N-PEN-05 0.0 161.6013000 0.0 0.0  &
        513            25.00000000 25.00000000 0.0
        514        BPVAL N-PEN-05 N-BUT-04 0.0 -241.2012000 0.0 0.0  &
        515            25.00000000 25.00000000 0.0
        516        BPVAL N-BUT-04 N-HEX-06 0.0 88.50230000 0.0 0.0  &
        517            -20.00000000 0.0 0.0
        518        BPVAL N-HEX-06 N-BUT-04 0.0 -108.2175000 0.0 0.0  &
        519            -20.00000000 0.0 0.0
        520        BPVAL I-PEN-05 N-HEX-06 0.0 -12.45910000 0.0 0.0  &
        521            27.77000000 68.60000000 0.0
        522        BPVAL N-HEX-06 I-PEN-05 0.0 13.28620000 0.0 0.0  &
        523            27.77000000 68.60000000 0.0
        524        BPVAL N-PEN-05 N-HEX-06 0.0 -101.2586000 0.0 0.0  &
        525            25.00000000 68.20000000 0.0
        526        BPVAL N-HEX-06 N-PEN-05 0.0 91.93780000 0.0 0.0  &
        527            25.00000000 68.20000000 0.0
        528        BPVAL N-PEN-05 N-HEP-07 0.0 243.6190000 0.0 0.0  &
        529            70.00000000 70.00000000 0.0
        530        BPVAL N-HEP-07 N-PEN-05 0.0 -382.8460000 0.0 0.0  &
        531            70.00000000 70.00000000 0.0
        532        BPVAL I-HEX-06 N-HEX-06 0.0 -112.3358000 0.0 0.0  &
        533            10.00000000 40.00000000 0.0
        534        BPVAL N-HEX-06 I-HEX-06 0.0 92.64360000 0.0 0.0  &
        535            10.00000000 40.00000000 0.0
        536        BPVAL I-HEX-06 N-OCT-08 0.0 13.19860000 0.0 0.0  &
        537            10.00000000 40.00000000 0.0
        538        BPVAL N-OCT-08 I-HEX-06 0.0 -23.53140000 0.0 0.0  &
        539            10.00000000 40.00000000 0.0
        540        BPVAL I-HEX-06 N-HEX-16 0.0 77.47670000 0.0 0.0  &
        541            20.00000000 20.00000000 0.0
        542        BPVAL N-HEX-16 I-HEX-06 0.0 -106.1612000 0.0 0.0  &
        543            20.00000000 20.00000000 0.0
        544        BPVAL N-HEX-06 N-HEP-07 0.0 -14.49230000 0.0 0.0  &
        545            14.00000000 98.60000000 0.0
        546        BPVAL N-HEP-07 N-HEX-06 0.0 16.06940000 0.0 0.0  &
        547            14.00000000 98.60000000 0.0
        548        BPVAL N-HEX-06 N-OCT-08 .0201000000 -68.55920000 0.0 0.0  &
        549            14.00000000 124.3000000 0.0
        550        BPVAL N-OCT-08 N-HEX-06 .2944000000 -29.72900000 0.0 0.0  &
        551            14.00000000 124.3000000 0.0
        552        BPVAL N-HEX-06 N-DEC-10 0.0 109.3200000 0.0 0.0  &
        553            35.00000000 144.8000000 0.0
        554        BPVAL N-DEC-10 N-HEX-06 0.0 -136.2149000 0.0 0.0  &
        555            35.00000000 144.8000000 0.0
        556        BPVAL N-HEX-06 N-UND-11 0.0 92.96840000 0.0 0.0  &
        557            35.00000000 35.00000000 0.0
        558        BPVAL N-UND-11 N-HEX-06 0.0 -114.6154000 0.0 0.0  &
        559            35.00000000 35.00000000 0.0
        560        BPVAL N-HEX-06 N-DOD-12 0.0 82.21770000 0.0 0.0  &
        561            35.00000000 35.00000000 0.0
        562        BPVAL N-DOD-12 N-HEX-06 0.0 -101.8828000 0.0 0.0  &
        563            35.00000000 35.00000000 0.0
        564        BPVAL N-HEX-06 N-HEX-16 0.0 6.112300000 0.0 0.0  &
        565            20.00000000 60.00000000 0.0
        566        BPVAL N-HEX-16 N-HEX-06 0.0 -19.52100000 0.0 0.0  &
        567            20.00000000 60.00000000 0.0
        568        BPVAL N-HEP-07 N-OCT-08 -.0418000000 -100.4119000 0.0 0.0  &
        569            39.50000000 124.3000000 0.0
        570        BPVAL N-OCT-08 N-HEP-07 .2238000000 17.22050000 0.0 0.0  &
        571            39.50000000 124.3000000 0.0
        572        BPVAL N-HEP-07 N-HEX-16 0.0 -9.317700000 0.0 0.0  &
        573            20.00000000 40.00000000 0.0
        574        BPVAL N-HEX-16 N-HEP-07 0.0 .7704500000 0.0 0.0  &
        575            20.00000000 40.00000000 0.0
        576        BPVAL N-OCT-08 N-HEX-16 0.0 -49.24090000 0.0 0.0  &
        577            25.00000000 25.00000000 0.0
        578        BPVAL N-HEX-16 N-OCT-08 0.0 39.48180000 0.0 0.0  &
        579            25.00000000 25.00000000 0.0
        580
        581    DEF-STREAMS CONVEN 30
        582
        583    STREAM 01
        584        SUBSTREAM MIXED TEMP=25.00000000 PRES=1.013250000  &
        585            MASS-FLOW=1000.
        586        MOLE-FRAC TG16:0 0.1417063529 / TG18:0 0.03733710779 /  &
        587            TG18:1 0.3562441483 / TG18:2 0.4285721761 / TG18:3  &
        588            0.03614021493
        589
        590    STREAM 03
        591        SUBSTREAM MIXED TEMP=121.61702 PRES=92
        592        MOLE-FLOW TG16:0 6.77442477 / TG18:0 1.78494064 / TG18:1  &
        593            17.0306351 / TG18:2 20.4883543 / TG18:3 1.72772189
        594
        595    STREAM 03-ED
        596        SUBSTREAM MIXED TEMP=121.61702 PRES=92
        597        MOLE-FLOW TG16:0 6.77442477 / TG18:0 1.78494064 / TG18:1  &
        598            17.0306351 / TG18:2 20.4883543 / TG18:3 1.72772189
        599
        600    STREAM 03-ED2
        601        SUBSTREAM MIXED TEMP=121.61702 PRES=92
        602        MOLE-FLOW TG16:0 6.77442477 / TG18:0 1.78494064 / TG18:1  &
        603            17.0306351 / TG18:2 20.4883543 / TG18:3 1.72772189
        604
        605    STREAM 06
        606        SUBSTREAM MIXED TEMP=225. PRES=92. MASS-FLOW=26.
        607        MOLE-FRAC H2 1.
        608
        609    STREAM 11
        610        SUBSTREAM MIXED TEMP=397.256025 PRES=92
        611        MOLE-FLOW H2O 92.1531031 / H2 70.6655653 / CO 8.97052967 / &
        612            CO2 92.8564139 / PROPA-03 47.8060767 / N-PEN-15  &
        613            14.4295247 / N-HEX-16 5.89374953 / N-HEP-17 87.3974183 / &
        614            N-OCT-18 35.697537
        615
        616    STREAM 11-ED
        617        SUBSTREAM MIXED TEMP=397.256025 PRES=92
        618        MOLE-FLOW H2O 92.1531031 / H2 70.6655653 / CO 8.97052967 / &
        619            CO2 92.8564139 / PROPA-03 47.8060767 / N-PEN-15  &
        620            14.4295247 / N-HEX-16 5.89374953 / N-HEP-17 87.3974183 / &
        621            N-OCT-18 35.697537
        622
        623    STREAM 26
        624        SUBSTREAM MIXED TEMP=225. PRES=35.48703647  &
        625            MOLE-FLOW=4302.546886
        626        MASS-FRAC H2 1.
        627
        628    STREAM 36
        629        SUBSTREAM MIXED TEMP=40.00000000 PRES=90.00000000
        630        MOLE-FLOW H2 7.50044646 / METHA-01 36.6033599 / ETHAN-02  &
        631            0.00287205493 / PROPA-03 0.00029821904 / ISOBU-04  &
        632            0.0018025453 / N-BUT-04 3.2877040E-05 / I-PEN-05  &
        633            0.00011618620 / N-PEN-05 2.9497033E-06 / I-HEX-06  &
        634            7.5189548E-06 / N-HEX-06 1.6081904E-07 / I-HEP-07  &
        635            3.9082644E-07 / N-HEP-07 1.2321645E-08 / I-OCT-08  &
        636            2.9703494E-08 / N-OCT-08 1.2053856E-09 / I-NON-09  &
        637            7.9234526E-10 / N-NON-09 5.7494321E-11 / I-DEC-10  &
        638            1.5025736E-10 / N-DEC-10 4.4659604E-12 / I-UND-11  &
        639            8.2162237E-12 / N-UND-11 4.3666896E-13 / I-DOD-12  &
        640            8.1946791E-13 / N-DOD-12 2.574282E-14 / I-TRI-13  &
        641            5.8475715E-14 / N-TRI-13 2.2583791E-15 / I-TET-14  &
        642            4.2141186E-15 / N-TET-14 1.6730875E-16 / N-PEN-15  &
        643            1.2411952E-17 / N-HEX-16 7.4047292E-19 / N-HEP-17  &
        644            4.1356560E-20 / N-OCT-18 2.9323650E-21
        645
        646    STREAM 45
        647        SUBSTREAM MIXED TEMP=25. PRES=1.01325 MASS-FLOW=28.80000000
        648        MOLE-FLOW H2 1.
        649
        650    STREAM 53
        651        SUBSTREAM MIXED TEMP=25. PRES=1.01325 MOLE-FLOW=110.
        652        MOLE-FRAC N2 0.79 / O2 0.21
        653
        654    STREAM S3
        655        SUBSTREAM MIXED TEMP=25. PRES=1.01325 MASS-FLOW=240.
        656        MOLE-FLOW N2 0.79 / O2 0.21
        657
        658    STREAM S5
        659        SUBSTREAM MIXED TEMP=420. PRES=15. MASS-FLOW=200.
        660        MOLE-FLOW H2O 1.
        661
        662    DEF-STREAMS HEAT HEAT04
        663
        664    DEF-STREAMS HEAT HEAT06
        665
        666    DEF-STREAMS HEAT HEAT17
        667
        668    DEF-STREAMS HEAT HEAT20
        669
        670    DEF-STREAMS HEAT HEAT26
        671
        672    DEF-STREAMS HEAT HEAT27
        673
        674    DEF-STREAMS HEAT HEATCOMB
        675
        676    DEF-STREAMS HEAT HEATHDO
        677
        678    DEF-STREAMS HEAT REMAIN
        679
        680    BLOCK 08MIXER MIXER
        681        PARAM
        682
        683    BLOCK 29MIXER MIXER
        684        PARAM
        685
        686    BLOCK 33MIXER MIXER
        687        PARAM
        688
        689    BLOCK 07SPLIT FSPLIT
        690        DUTY HEAT26 30573044.
        691
        692    BLOCK 30SPLIT FSPLIT
        693        MOLE-FLOW 51 4302.546886
        694
        695    BLOCK 36SPLIT FSPLIT
        696        DUTY HEAT04 3888483.43 / HEAT06 160398.96 / HEAT17  &
        697            1112089.44
        698
        699    BLOCK 13SEP SEP
        700        PARAM NPHASE=2
        701        FRAC STREAM=18 SUBSTREAM=MIXED COMPS=TG16:0 TG18:0 TG18:1  &
        702            TG18:2 TG18:3 FA16:0 FA18:0 FA18:1 FA18:2 FA18:3 H2O  &
        703            H2 N2 O2 CO CO2 METHA-01 ETHAN-02 PROPA-03 ISOBU-04  &
        704            N-BUT-04 I-PEN-05 N-PEN-05 I-HEX-06 N-HEX-06 I-HEP-07  &
        705            N-HEP-07 I-OCT-08 N-OCT-08 I-NON-09 N-NON-09 I-DEC-10  &
        706            N-DEC-10 I-UND-11 N-UND-11 I-DOD-12 N-DOD-12 I-TRI-13  &
        707            N-TRI-13 I-TET-14 N-TET-14 N-PEN-15 N-HEX-16 N-HEP-17  &
        708            N-OCT-18 FRACS=0. 0. 0. 0. 0. 0. 0. 0. 0. 0. 0.  &
        709            1. 1. 1. 1. 1. 1. 1. 1. 0. 0. 0. 0. 0. 0. 0.  &
        710            0. 0. 0. 0. 0. 0. 0. 0. 0. 0. 0. 0. 0. 0. 0.  &
        711            0. 0. 0. 0.
        712        FRAC STREAM=17 SUBSTREAM=MIXED COMPS=TG16:0 TG18:0 TG18:1  &
        713            TG18:2 TG18:3 FA16:0 FA18:0 FA18:1 FA18:2 FA18:3 H2O  &
        714            H2 CO CO2 METHA-01 ETHAN-02 PROPA-03 ISOBU-04 N-BUT-04  &
        715            I-PEN-05 N-PEN-05 I-HEX-06 N-HEX-06 I-HEP-07 N-HEP-07  &
        716            I-OCT-08 N-OCT-08 I-NON-09 N-NON-09 I-DEC-10 N-DEC-10  &
        717            I-UND-11 N-UND-11 I-DOD-12 N-DOD-12 I-TRI-13 N-TRI-13  &
        718            I-TET-14 N-TET-14 N-PEN-15 N-HEX-16 N-HEP-17 N-OCT-18  &
        719            FRACS=0. 0. 0. 0. 0. 0. 0. 0. 0. 0. 1. 0. 0. 0.  &
        720            0. 0. 0. 0. 0. 0. 0. 0. 0. 0. 0. 0. 0. 0. 0.  &
        721            0. 0. 0. 0. 0. 0. 0. 0. 0. 0. 0. 0. 0. 0.
        722        BLOCK-OPTION FREE-WATER=YES
        723
        724    BLOCK 15ABS SEP
        725        PARAM
        726        FRAC STREAM=20 SUBSTREAM=MIXED COMPS=TG16:0 TG18:0 TG18:1  &
        727            TG18:2 TG18:3 FA16:0 FA18:0 FA18:1 FA18:2 FA18:3 H2O  &
        728            H2 CO CO2 METHA-01 ETHAN-02 PROPA-03 ISOBU-04 N-BUT-04  &
        729            I-PEN-05 N-PEN-05 I-HEX-06 N-HEX-06 I-HEP-07 N-HEP-07  &
        730            I-OCT-08 N-OCT-08 I-NON-09 N-NON-09 I-DEC-10 N-DEC-10  &
        731            I-UND-11 N-UND-11 I-DOD-12 N-DOD-12 I-TRI-13 N-TRI-13  &
        732            I-TET-14 N-TET-14 N-PEN-15 N-HEX-16 N-HEP-17 N-OCT-18  &
        733            FRACS=1. 1. 1. 1. 1. 1. 1. 1. 1. 1. 1. 0. 1. 1.  &
        734            1. 1. 1. 1. 1. 1. 1. 1. 1. 1. 1. 1. 1. 1. 1.  &
        735            1. 1. 1. 1. 1. 1. 1. 1. 1. 1. 1. 1. 1. 1.
        736
        737    BLOCK 23SEP SEP
        738        PARAM
        739        FRAC STREAM=37 SUBSTREAM=MIXED COMPS=TG16:0 TG18:0 TG18:1  &
        740            TG18:2 TG18:3 FA16:0 FA18:0 FA18:1 FA18:2 FA18:3 H2O  &
        741            H2 CO CO2 METHA-01 ETHAN-02 PROPA-03 ISOBU-04 N-BUT-04  &
        742            I-PEN-05 N-PEN-05 I-HEX-06 N-HEX-06 I-HEP-07 N-HEP-07  &
        743            I-OCT-08 N-OCT-08 I-NON-09 N-NON-09 I-DEC-10 N-DEC-10  &
        744            I-UND-11 N-UND-11 I-DOD-12 N-DOD-12 I-TRI-13 N-TRI-13  &
        745            I-TET-14 N-TET-14 I-PEN-15 N-PEN-15 I-HEX-16 N-HEX-16  &
        746            I-HEP-17 N-HEP-17 I-OCT-18 N-OCT-18 FRACS=0. 0. 0. 0.  &
        747            0. 0. 0. 0. 0. 0. 1. 1. 1. 1. 1. 1. 1. 1. 1.  &
        748            1. 0. 0. 0. 0. 0. 0. 0. 0. 0. 0. 0. 0. 0. 0.  &
        749            0. 0. 0. 0. 0. 0. 0. 0. 0. 0. 0. 0. 0.
        750
        751    BLOCK 25PSA SEP
        752        PARAM
        753        FRAC STREAM=47 SUBSTREAM=MIXED COMPS=H2 FRACS=1.
        754
        755    BLOCK 04HEX HEATER
        756        PARAM TEMP=400. PRES=0. DPPARMOPT=NO
        757        UTILITY UTILITY-ID=U-1
        758
        759    BLOCK 11HEX HEATER
        760        PARAM TEMP=42. PRES=0.0 NPHASE=2 DPPARMOPT=NO
        761        BLOCK-OPTION FREE-WATER=YES
        762
        763    BLOCK 20HEX HEATER
        764        PARAM PRES=0. DPPARMOPT=NO
        765        UTILITY UTILITY-ID=U-1
        766
        767    BLOCK 21HEX HEATER
        768        PARAM PRES=0. DUTY=-8489699.78 DPPARMOPT=NO
        769
        770    BLOCK 22HEX HEATER
        771        PARAM TEMP=42. PRES=0.0 DPPARMOPT=NO
        772        UTILITY UTILITY-ID=U-2
        773
        774    BLOCK 35HEX HEATER
        775        PARAM TEMP=420. PRES=0. DPPARMOPT=NO
        776
        777    BLOCK B5 HEATER
        778        PARAM TEMP=357.17874218 PRES=0. DPPARMOPT=NO
        779
        780    BLOCK 02HEX HEATX
        781        PARAM T-COLD=121.61702 CALC-TYPE=DESIGN U-OPTION=PHASE  &
        782            F-OPTION=CONSTANT CALC-METHOD=SHORTCUT
        783        FEEDS HOT=13 COLD=02
        784        OUTLETS-HOT 14
        785        OUTLETS-COLD 03
        786        HOT-SIDE DP-OPTION=CONSTANT DPPARMOPT=NO
        787        COLD-SIDE DP-OPTION=CONSTANT DPPARMOPT=NO
        788        TQ-PARAM CURVE=YES
        789
        790    BLOCK 03HEX HEATX
        791        PARAM T-HOT=226.54645739 CALC-TYPE=DESIGN U-OPTION=PHASE  &
        792            F-OPTION=CONSTANT CALC-METHOD=SHORTCUT
        793        FEEDS HOT=11 COLD=03
        794        OUTLETS-HOT 12
        795        OUTLETS-COLD 04
        796        HOT-SIDE DP-OPTION=CONSTANT DPPARMOPT=NO
        797        COLD-SIDE DP-OPTION=CONSTANT DPPARMOPT=NO
        798        TQ-PARAM CURVE=YES
        799
        800    BLOCK 09HEX HEATX
        801        PARAM T-COLD=310. CALC-TYPE=DESIGN U-OPTION=PHASE  &
        802            F-OPTION=CONSTANT CALC-METHOD=SHORTCUT
        803        FEEDS HOT=10 COLD=24
        804        OUTLETS-HOT 11
        805        OUTLETS-COLD 25
        806        HOT-SIDE DP-OPTION=CONSTANT DPPARMOPT=NO
        807        COLD-SIDE DP-OPTION=CONSTANT DPPARMOPT=NO
        808        TQ-PARAM CURVE=YES
        809
        810    BLOCK 10HEX HEATX
        811        PARAM T-COLD=201.902831 CALC-TYPE=DESIGN U-OPTION=PHASE  &
        812            F-OPTION=CONSTANT CALC-METHOD=SHORTCUT
        813        FEEDS HOT=12 COLD=22
        814        OUTLETS-HOT 13
        815        OUTLETS-COLD 23
        816        HOT-SIDE DP-OPTION=CONSTANT DPPARMOPT=NO
        817        COLD-SIDE DP-OPTION=CONSTANT DPPARMOPT=NO
        818        TQ-PARAM CURVE=YES
        819
        820    BLOCK 14HEX HEATX
        821        PARAM T-COLD=127.986909 CALC-TYPE=DESIGN U-OPTION=PHASE  &
        822            F-OPTION=CONSTANT CALC-METHOD=SHORTCUT
        823        FEEDS HOT=34 COLD=19
        824        OUTLETS-HOT 35
        825        OUTLETS-COLD 22
        826        HOT-SIDE DP-OPTION=CONSTANT DPPARMOPT=NO
        827        COLD-SIDE DP-OPTION=CONSTANT DPPARMOPT=NO
        828        TQ-PARAM CURVE=YES
        829
        830    BLOCK 15HEX HEATX
        831        PARAM T-COLD=305.871948 CALC-TYPE=DESIGN U-OPTION=PHASE  &
        832            F-OPTION=CONSTANT CALC-METHOD=SHORTCUT
        833        FEEDS HOT=30 COLD=23
        834        OUTLETS-HOT 31
        835        OUTLETS-COLD 24
        836        HOT-SIDE DP-OPTION=CONSTANT DPPARMOPT=NO
        837        COLD-SIDE DP-OPTION=CONSTANT DPPARMOPT=NO
        838        TQ-PARAM CURVE=YES
        839
        840    BLOCK 18HEX HEATX
        841        PARAM MIN-OUT-TAPP=5. <K> CALC-TYPE=DESIGN U-OPTION=PHASE  &
        842            F-OPTION=CONSTANT CALC-METHOD=SHORTCUT
        843        FEEDS HOT=33 COLD=26
        844        OUTLETS-HOT 34
        845        OUTLETS-COLD 27
        846        HOT-SIDE DP-OPTION=CONSTANT DPPARMOPT=NO
        847        COLD-SIDE DP-OPTION=CONSTANT DPPARMOPT=NO
        848        TQ-PARAM CURVE=YES
        849
        850    BLOCK 19HEX HEATX
        851        PARAM T-COLD=238.274947 CALC-TYPE=DESIGN U-OPTION=PHASE  &
        852            F-OPTION=CONSTANT CALC-METHOD=SHORTCUT
        853        FEEDS HOT=31 COLD=27
        854        OUTLETS-HOT 32
        855        OUTLETS-COLD 28
        856        HOT-SIDE DP-OPTION=CONSTANT DPPARMOPT=NO
        857        COLD-SIDE DP-OPTION=CONSTANT DPPARMOPT=NO
        858        TQ-PARAM CURVE=YES
        859
        860    BLOCK B1 HEATX
        861        PARAM T-COLD=357.17874218 CALC-TYPE=DESIGN U-OPTION=PHASE  &
        862            F-OPTION=CONSTANT CALC-METHOD=SHORTCUT
        863        FEEDS HOT=11-ED COLD=03-ED
        864        OUTLETS-HOT S2
        865        OUTLETS-COLD S1
        866        HOT-SIDE DP-OPTION=CONSTANT DPPARMOPT=NO
        867        COLD-SIDE DP-OPTION=CONSTANT DPPARMOPT=NO
        868        TQ-PARAM CURVE=YES
        869
        870    BLOCK 26DISTIL RADFRAC
        871        PARAM NSTAGE=30 ALGORITHM=STANDARD MAXOL=25 DAMPING=NONE
        872        PARAM2
        873        COL-CONFIG CONDENSER=TOTAL
        874        FEEDS 39 10
        875        PRODUCTS 40 1 L / 41 30 L
        876        P-SPEC 1 1.01325
        877        COL-SPECS MASS-B=213.8534279 MOLE-RR=0.8
        878
        879    BLOCK 27DISTIL RADFRAC
        880        PARAM NSTAGE=20 ALGORITHM=STANDARD MAXOL=25 DAMPING=NONE
        881        PARAM2
        882        COL-CONFIG CONDENSER=TOTAL
        883        FEEDS 40 10
        884        PRODUCTS 42 1 L / 43 20 L
        885        P-SPEC 1 1.01325
        886        COL-SPECS MASS-D=235.1892115 MOLE-RR=0.8
        887
        888    BLOCK 05HDO-RE RSTOIC
        889        PARAM TEMP=400.0000000 PRES=92.00000000 SERIES=YES
        890        STOIC 1 MIXED TG18:3 -1. / H2 -3. / FA18:3 3. /  &
        891            PROPA-03 1.
        892        STOIC 2 MIXED TG18:2 -1. / H2 -3. / FA18:2 3. /  &
        893            PROPA-03 1.
        894        STOIC 3 MIXED TG18:1 -1. / H2 -3. / FA18:1 3. /  &
        895            PROPA-03 1.
        896        STOIC 4 MIXED TG18:0 -1. / H2 -3. / FA18:0 3. /  &
        897            PROPA-03 1.
        898        STOIC 5 MIXED TG16:0 -1. / H2 -3. / FA16:0 3. /  &
        899            PROPA-03 1.
        900        STOIC 6 MIXED FA18:3 -1. / H2 -3. / N-HEP-17 1. / CO2  &
        901            1.
        902        STOIC 7 MIXED FA18:3 -1. / H2 -4. / N-HEP-17 1. / CO  &
        903            1. / H2O 1.
        904        STOIC 8 MIXED FA18:3 -1. / H2 -6. / N-OCT-18 1. / H2O  &
        905            2.
        906        STOIC 9 MIXED FA18:2 -1. / H2 -2. / N-HEP-17 1. / CO2  &
        907            1.
        908        STOIC 10 MIXED FA18:2 -1. / H2 -3. / N-HEP-17 1. / CO  &
        909            1. / H2O 1.
        910        STOIC 11 MIXED FA18:2 -1. / H2 -5. / N-OCT-18 1. /  &
        911            H2O 2.
        912        STOIC 12 MIXED FA18:1 -1. / H2 -1. / N-HEP-17 1. /  &
        913            CO2 1.
        914        STOIC 13 MIXED FA18:1 -1. / H2 -2. / N-HEP-17 1. / CO  &
        915            1. / H2O 1.
        916        STOIC 14 MIXED FA18:1 -1. / H2 -4. / N-OCT-18 1. /  &
        917            H2O 2.
        918        STOIC 15 MIXED FA18:0 -1. / N-HEP-17 1. / CO2 1.
        919        STOIC 16 MIXED FA18:0 -1. / H2 -1. / N-HEP-17 1. / CO  &
        920            1. / H2O 1.
        921        STOIC 17 MIXED FA18:0 -1. / H2 -3. / N-OCT-18 1. /  &
        922            H2O 2.
        923        STOIC 18 MIXED FA16:0 -1. / N-PEN-15 1. / CO2 1.
        924        STOIC 19 MIXED FA16:0 -1. / H2 -1. / N-PEN-15 1. / CO  &
        925            1. / H2O 1.
        926        STOIC 20 MIXED FA16:0 -1. / H2 -3. / N-HEX-16 1. /  &
        927            H2O 2.
        928        CONV 1 MIXED TG18:3 1.
        929        CONV 2 MIXED TG18:2 1.
        930        CONV 3 MIXED TG18:1 1.
        931        CONV 4 MIXED TG18:0 1.
        932        CONV 5 MIXED TG16:0 1.
        933        CONV 6 MIXED FA18:3 0.68
        934        CONV 7 MIXED FA18:3 0.09375
        935        CONV 8 MIXED FA18:3 1.
        936        CONV 9 MIXED FA18:2 0.68
        937        CONV 10 MIXED FA18:2 0.09375
        938        CONV 11 MIXED FA18:2 1.
        939        CONV 12 MIXED FA18:1 0.68
        940        CONV 13 MIXED FA18:1 0.09375
        941        CONV 14 MIXED FA18:1 1.
        942        CONV 15 MIXED FA18:0 0.68
        943        CONV 16 MIXED FA18:0 0.09375
        944        CONV 17 MIXED FA18:0 1.
        945        CONV 18 MIXED FA16:0 0.68
        946        CONV 19 MIXED FA16:0 0.09375
        947        CONV 20 MIXED FA16:0 1.
        948
        949    BLOCK 34COMB RSTOIC
        950        PARAM TEMP=1250. PRES=1.01325 COMBUSTION=YES
        951
        952    BLOCK 17HCC-RE RYIELD
        953        PARAM TEMP=310. PRES=35.48703647
        954        MASS-YIELD MIXED H2 0.195413657 / METHA-01 0. / ETHAN-02  &
        955            0. / PROPA-03 0.006328793 / ISOBU-04 0.004142483 /  &
        956            N-BUT-04 0.01283019 / I-PEN-05 0.005350707 / N-PEN-05  &
        957            0.039813863 / I-HEX-06 0.014843897 / N-HEX-06  &
        958            0.034175483 / I-HEP-07 0.055578311 / N-HEP-07  &
        959            0.024394621 / I-OCT-08 0.058167363 / N-OCT-08  &
        960            0.026120656 / I-NON-09 0.058570104 / N-NON-09  &
        961            0.012715121 / I-DEC-10 0.052816656 / N-DEC-10  &
        962            0.009838397 / I-UND-11 0.048041294 / N-UND-11  &
        963            0.007767155 / I-DOD-12 0.038835777 / N-DOD-12  &
        964            0.005926052 / I-TRI-13 0.028422035 / N-TRI-13  &
        965            0.003624672 / I-TET-14 0.017432949 / N-TET-14  &
        966            0.002301379 / I-PEN-15 0.016154347 / N-PEN-15  &
        967            0.0048606 / I-HEX-16 0.007033964 / N-HEX-16  &
        968            0.002116414 / I-HEP-17 0.110766517 / N-HEP-17  &
        969            0.033327979 / I-OCT-18 0.047881685 / N-OCT-18  &
        970            0.014406879
        971
        972    BLOCK 06REQUIL REQUIL
        973        PARAM NREAC=1 TEMP=400.0000000 PRES=92.00000000
        974        STOIC 1 CO -1. * / H2O -1. * / CO2 1. * / H2 1. *
        975        TAPP-SPEC 1 0.0
        976        TAPP-CHECK 1 NONE
        977
        978    BLOCK 01PUMP PUMP
        979        PARAM PRES=92.00000000 EFF=0.85
        980        PROPERTIES UNIFAC FREE-WATER=STEAM-TA SOLU-WATER=3  &
        981            TRUE-COMPS=YES
        982
        983    BLOCK 31COMP COMPR
        984        PARAM TYPE=ISENTROPIC PRES=92. SEFF=0.82 SB-MAXIT=30  &
        985            SB-TOL=0.0001
        986
        987    BLOCK B3 COMPR
        988        PARAM TYPE=ISENTROPIC PRES=1.15 SEFF=0.6 SB-MAXIT=30  &
        989            SB-TOL=0.0001
        990
        991    BLOCK B4 COMPR
        992        PARAM TYPE=ISENTROPIC PRES=3. SEFF=0.82 SB-MAXIT=30  &
        993            SB-TOL=0.0001 MODEL-TYPE=TURBINE
        994        PERFOR-PARAM CALC-SPEED=NO
        995
        996    BLOCK 28COMP MCOMPR
        997        PARAM NSTAGE=3 TYPE=ISENTROPIC PRES=35.48703647 SB-MAXIT=30  &
        998            SB-TOL=0.0001
        999        FEEDS 45 1
       1000        PRODUCTS 46 3
       1001        COMPR-SPECS 1 SEFF=0.82 / 2 SEFF=0.82
       1002        COOLER-SPECS 1 TEMP=42. / 2 TEMP=42.
       1003
       1004    BLOCK 12VALVE VALVE
       1005        PARAM P-OUT=35.48703647 NPHASE=2
       1006        BLOCK-OPTION FREE-WATER=YES
       1007
       1008    BLOCK 24VALVE VALVE
       1009        PARAM P-OUT=1.01325
       1010
       1011    BLOCK 32VALVE VALVE
       1012        PARAM P-OUT=1.01325
       1013
       1014    UTILITY U-1 GENERAL
       1015        DESCRIPTION  &
       1016            'Fired Heater, Inlet Temp=1000 C, Outlet Temp=400 C'
       1017        COST ENERGY-PRICE=4.25E-06 <$/kJ>
       1018        PARAM UTILITY-TYPE=GENERAL COOLING-VALU=600. TIN=1000.  &
       1019            TOUT=400. MIN-TAPP=25. CALCCO2=YES FACTORSOURCE= &
       1020            "US-Title40-Part98" FUELSOURCE="Natural_gas"  &
       1021            CO2FACTOR=5.02900000E-8 EFFICIENCY=0.85  &
       1022            HTC=0.0003996 <GJ/hr-sqm-C>
       1023
       1024    UTILITY U-2 GENERAL
       1025        DESCRIPTION 'Cooling Water, Inlet Temp=20 C, Outlet Temp=25 C'
       1026        COST ENERGY-PRICE=2.12E-07 <$/kJ>
       1027        PARAM UTILITY-TYPE=WATER PRES=1. <atm> PRES-OUT=1. <atm>  &
       1028            TIN=32. TOUT=37. CALOPT=FLASH MIN-TAPP=5. CALCCO2=NO  &
       1029            HTC=0.0135 <GJ/hr-sqm-C>
       1030
       1031    DESIGN-SPEC MAKEUPH2
       1032        DEFINE REQH2 MASS-FLOW STREAM=06 SUBSTREAM=MIXED  &
       1033            COMPONENT=H2 UOM="kg/hr"
       1034        DEFINE RECYCH2 MASS-FLOW STREAM=49 SUBSTREAM=MIXED  &
       1035            COMPONENT=H2 UOM="kg/hr"
       1036        SPEC "REQH2-RECYCH2" TO "0"
       1037        TOL-SPEC "1e-5"
       1038        VARY STREAM-VAR STREAM=45 SUBSTREAM=MIXED VARIABLE=MASS-FLOW  &
       1039            UOM="kg/hr"
       1040        LIMITS "1000" "1300"
       1041
       1042    EO-CONV-OPTI
       1043
       1044    CALCULATOR COMB-REL
       1045        DEFINE FCO MOLE-FLOW STREAM=52 SUBSTREAM=MIXED COMPONENT=CO  &
       1046            UOM="kmol/hr"
       1047        DEFINE FMET MOLE-FLOW STREAM=52 SUBSTREAM=MIXED  &
       1048            COMPONENT=METHA-01 UOM="kmol/hr"
       1049        DEFINE FETH MOLE-FLOW STREAM=52 SUBSTREAM=MIXED  &
       1050            COMPONENT=ETHAN-02 UOM="kmol/hr"
       1051        DEFINE FPROP MOLE-FLOW STREAM=52 SUBSTREAM=MIXED  &
       1052            COMPONENT=PROPA-03 UOM="kmol/hr"
       1053        DEFINE FIBUT MOLE-FLOW STREAM=52 SUBSTREAM=MIXED  &
       1054            COMPONENT=ISOBU-04 UOM="kmol/hr"
       1055        DEFINE FNBUT MOLE-FLOW STREAM=52 SUBSTREAM=MIXED  &
       1056            COMPONENT=N-BUT-04 UOM="kmol/hr"
       1057        DEFINE FIPAN MOLE-FLOW STREAM=52 SUBSTREAM=MIXED  &
       1058            COMPONENT=I-PEN-05 UOM="kmol/hr"
       1059        DEFINE FAIR STREAM-VAR STREAM=53 SUBSTREAM=MIXED  &
       1060            VARIABLE=MOLE-FLOW UOM="kmol/hr"
       1061    F     O2_A = 1/2*FCO
       1062    F     O2_B = 2*FMET
       1063    F     O2_C = 3.5*FETH
       1064    F     O2_D = 5*FPROP
       1065    F     O2_E = 6.5*FIBUT
       1066    F     O2_F = 6.5*FNBUT
       1067    F     O2_G = 8*FIPAN
       1068    F
       1069    F     O2_REQ = O2_A + O2_B + O2_C + O2_D + O2_E + O2_F + O2_G
       1070    F     AIR_REQ = O2_REQ/0.21
       1071    F     FAIR = 1.1*AIR_REQ
       1072        READ-VARS FCO FMET FETH FPROP FIBUT FNBUT FIPAN
       1073        WRITE-VARS FAIR
       1074
       1075    CALCULATOR H2-RELAV
       1076        DEFINE FOIL STREAM-VAR STREAM=25 SUBSTREAM=MIXED  &
       1077            VARIABLE=MOLE-FLOW UOM="kmol/hr"
       1078        DEFINE FH2HCC STREAM-VAR STREAM=26 SUBSTREAM=MIXED  &
       1079            VARIABLE=MOLE-FLOW UOM="kmol/hr"
       1080        DEFINE SPLITH2 BLOCK-VAR BLOCK=30SPLIT SENTENCE=MOLE-FLOW  &
       1081            VARIABLE=FLOW ID1=51 UOM="kmol/hr"
       1082        DEFINE FEEEDIN STREAM-VAR STREAM=01 SUBSTREAM=MIXED  &
       1083            VARIABLE=MASS-FLOW UOM="tonne/day"
       1084        DEFINE FH2HDO STREAM-VAR STREAM=06 SUBSTREAM=MIXED  &
       1085            VARIABLE=MASS-FLOW UOM="tonne/day"
       1086        DEFINE TH2HDO STREAM-VAR STREAM=06 SUBSTREAM=MIXED  &
       1087            VARIABLE=TEMP UOM="C"
       1088        DEFINE TH2RCY1 STREAM-VAR STREAM=50 SUBSTREAM=MIXED  &
       1089            VARIABLE=TEMP UOM="C"
       1090        DEFINE TH2HCC STREAM-VAR STREAM=26 SUBSTREAM=MIXED  &
       1091            VARIABLE=TEMP UOM="C"
       1092        DEFINE TH2RCY2 STREAM-VAR STREAM=51 SUBSTREAM=MIXED  &
       1093            VARIABLE=TEMP UOM="C"
       1094    F     FH2HCC = 30*FOIL
       1095    F     SPLITH2 = FH2HCC
       1096    F     TH2HDO = TH2RCY1
       1097    F     TH2HCC = TH2RCY2
       1098        READ-VARS FOIL FEEEDIN TH2RCY1 TH2RCY2
       1099        WRITE-VARS FH2HCC SPLITH2 FH2HDO TH2HDO TH2HCC
       1100
       1101    CALCULATOR HEAT-INT
       1102        DEFINE HDOHEAT BLOCK-VAR BLOCK=07SPLIT SENTENCE=DUTY  &
       1103            VARIABLE=DUTY ID1=HEAT26
       1104        DEFINE REBHEAT BLOCK-VAR BLOCK=26DISTIL VARIABLE=REB-DUTY  &
       1105            SENTENCE=RESULTS UOM="kJ/hr"
       1106        DEFINE HEXDUTY BLOCK-VAR BLOCK=21HEX VARIABLE=DUTY  &
       1107            SENTENCE=PARAM UOM="kJ/hr"
       1108        DEFINE REB2HEAT BLOCK-VAR BLOCK=27DISTIL VARIABLE=REB-DUTY  &
       1109            SENTENCE=RESULTS UOM="kJ/hr"
       1110    F     HDOHEAT = REBHEAT
       1111    F     HEXDUTY = - REB2HEAT
       1112        READ-VARS REBHEAT REB2HEAT
       1113        WRITE-VARS HDOHEAT HEXDUTY
       1114
       1115    STREAM-REPOR MOLEFLOW
       1116
       1117    PROPERTY-REP NOPARAM-PLUS
       1118    ;
       1119    ;
       1120    ;
       1121    ;
       1122    ;
 *** INPUT TRANSLATOR MESSAGES ***

      SQLLOCALDB.APESV150 : (DATAVERSION - 41.0.0.10)                         
      SQLLOCALDB.APV150 : (DATAVERSION - 41.0.0.9)                            
      SQLLOCALDB.FACTV150 : (DATAVERSION - 41.0.0.6)                          
      SQLLOCALDB.NISTV150 : (DATAVERSION - 41.0.0.7)                          
  *** THIS RUN USES THE PROPERTIES ENTERPRISE DATABASE ***

  *   WARNING IN THE "STREAM" PARAGRAPH WHICH BEGINS ON LINE 646                
      STREAM NAME: 45                                          (STSTRM.28)      
      COMPONENT MOLE FLOWS OF SUBSTREAM: "MIXED"                                
      ARE NORMALIZED TO THE TOTAL MOLE FLOW VALUE.                              

  *   WARNING IN THE "STREAM" PARAGRAPH WHICH BEGINS ON LINE 654                
      STREAM NAME: S3                                          (STSTRM.28)      
      COMPONENT MOLE FLOWS OF SUBSTREAM: "MIXED"                                
      ARE NORMALIZED TO THE TOTAL MOLE FLOW VALUE.                              

  *   WARNING IN THE "STREAM" PARAGRAPH WHICH BEGINS ON LINE 658                
      STREAM NAME: S5                                          (STSTRM.28)      
      COMPONENT MOLE FLOWS OF SUBSTREAM: "MIXED"                                
      ARE NORMALIZED TO THE TOTAL MOLE FLOW VALUE.                              

  *   WARNING WHILE CHECKING INPUT SPECIFICATIONS              (PRPCHK.1)       
      INCONSISTENT PROPERTIES DETECTED FOR 1 STREAMS                            
      SOURCE BLOCK        PROPERTIES STREAM   DESTINATION BLOCK   PROPERTIES    
      =================== ========== ======== =================== ==========    
      01PUMP              UNIFAC     02       02HEX               PENG-ROB      

  *   WARNING WHILE CHECKING INPUT SPECIFICATIONS              (PRPCHK.2)       
      INCONSISTENT FREE WATER SETTING DETECTED FOR 1 STREAMS                    
      SOURCE BLOCK        FREE WATER STREAM   DESTINATION BLOCK   FREE WATER    
      =================== ========== ======== =================== ==========    
      02HEX               NO         14       11HEX               YES           
 
 DESIGN SPEC: MAKEUPH2 WILL BE INTERPRETED 
 CALCULATOR BLOCK: COMB-REL WILL BE INTERPRETED 
 CALCULATOR BLOCK: H2-RELAV WILL BE INTERPRETED 
 CALCULATOR BLOCK: HEAT-INT WILL BE INTERPRETED 
 

 PDF updated                                                                      TIME =      2.71

  *   WARNING IN PHYSICAL PROPERTY SYSTEM WHILE INITIALIZING PROPERTY MODELS    
                                                               (GM07.1)         
      UNIQUAC BINARY PARAMETERS FOR ALL COMPONENT PAIRS ARE ZERO (DATA SET 1),  
      YOUR RESULTS MAY NOT BE ACCURATE. PLEASE REVIEW AND PROVIDE BINARY        
      PARAMETERS AS APPROPRIATE.                                                

 *** CALCULATION TRACE ***


 *** FLOWSHEET ANALYSIS MESSAGES ***

 FLOWSHEET CONNECTIVITY BY STREAMS       

   STREAM     SOURCE     DEST           STREAM     SOURCE     DEST
   01         ----       01PUMP         06         ----       05HDO-RE
   45         ----       28COMP         53         ----       33MIXER 
   03-ED      ----       B1             11-ED      ----       B1      
   S3         ----       B3             S5         ----       B4      
   03-ED2     ----       B5             26         ----       18HEX   
   02         01PUMP     02HEX          07         05HDO-RE   06REQUIL
   HEATHDO    05HDO-RE   07SPLIT        08         06REQUIL   08MIXER 
   09         06REQUIL   08MIXER        15         11HEX      12VALVE 
   18         13SEP      15ABS          17         13SEP      ----    
   19         13SEP      14HEX          10         08MIXER    09HEX   
   20         15ABS      32VALVE        21         15ABS      29MIXER 
   36         22HEX      23SEP          37         23SEP      25PSA   
   38         23SEP      24VALVE        47         25PSA      29MIXER 
   44         25PSA      ----           30         17HCC-RE   15HEX   
   48         29MIXER    30SPLIT        51         30SPLIT    ----    
   49         30SPLIT    31COMP         46         28COMP     29MIXER 
   50         31COMP     ----           52         32VALVE    33MIXER 
   54         33MIXER    34COMB         55         34COMB     35HEX   
   HEATCOMB   34COMB     36SPLIT        16         12VALVE    13SEP   
   56         35HEX      ----           40         26DISTIL   27DISTIL
   41         26DISTIL   ----           39         24VALVE    26DISTIL
   05         04HEX      05HDO-RE       33         21HEX      18HEX   
   HEAT27     21HEX      ----           HEAT20     07SPLIT    20HEX   
   HEAT26     07SPLIT    ----           42         27DISTIL   ----    
   43         27DISTIL   ----           29         20HEX      17HCC-RE
   HEAT04     36SPLIT    ----           HEAT06     36SPLIT    ----    
   HEAT17     36SPLIT    ----           REMAIN     36SPLIT    ----    
   S2         B1         ----           S1         B1         ----    
   S4         B3         ----           S6         B4         ----    
   S7         B5         ----           12         03HEX      10HEX   
   04         03HEX      04HEX          14         02HEX      11HEX   
   03         02HEX      03HEX          13         10HEX      02HEX   
   23         10HEX      15HEX          11         09HEX      03HEX   
   25         09HEX      17HCC-RE       35         14HEX      22HEX   
   22         14HEX      10HEX          34         18HEX      14HEX   
   27         18HEX      19HEX          32         19HEX      21HEX   
   28         19HEX      20HEX          31         15HEX      19HEX   
   24         15HEX      09HEX                                        

 FLOWSHEET CONNECTIVITY BY BLOCKS        

   BLOCK        INLETS                         OUTLETS
   01PUMP       01                             02                          
   05HDO-RE     06 05                          07 HEATHDO                  
   06REQUIL     07                             08 09                       
   11HEX        14                             15                          
   13SEP        16                             18 17 19                    
   08MIXER      08 09                          10                          
   15ABS        18                             20 21                       
   22HEX        35                             36                          
   23SEP        36                             37 38                       
   25PSA        37                             47 44                       
   17HCC-RE     25 29                          30                          
   29MIXER      47 21 46                       48                          
   30SPLIT      48                             51 49                       
   28COMP       45                             46                          
   31COMP       49                             50                          
   32VALVE      20                             52                          
   33MIXER      53 52                          54                          
   34COMB       54                             55 HEATCOMB                 
   12VALVE      15                             16                          
   35HEX        55                             56                          
   26DISTIL     39                             40 41                       
   24VALVE      38                             39                          
   04HEX        04                             05                          
   21HEX        32                             33 HEAT27                   
   07SPLIT      HEATHDO                        HEAT20 HEAT26               
   27DISTIL     40                             42 43                       
   20HEX        28 HEAT20                      29                          
   36SPLIT      HEATCOMB                       HEAT04 HEAT06 HEAT17 REMAIN 
   B1           11-ED 03-ED                    S2 S1                       
   B3           S3                             S4                          
   B4           S5                             S6                          
   B5           03-ED2                         S7                          
   03HEX        11 03                          12 04                       
   02HEX        13 02                          14 03                       
   10HEX        12 22                          13 23                       
   09HEX        10 24                          11 25                       
   14HEX        34 19                          35 22                       
   18HEX        33 26                          34 27                       
   19HEX        31 27                          32 28                       
   15HEX        30 23                          31 24                       

      BLOCK $OLVER01 (METHOD: WEGSTEIN) HAS BEEN DEFINED TO CONVERGE
               STREAMS: 10        36        03        22        27
                       28        24

  *   WARNING DURING FLOWSHEET ANALYSIS                        (AF2MER.2)       
      BECAUSE TEAR-VAR=NO IN CONV-OPTIONS, AN INFORMATION TEAR:                 
         STREAM $WRV14    FROM H2-RELAV     TO 30SPLIT                          
      WILL NOT BE CONVERGED BY A CONVERGENCE BLOCK. THIS MAY CAUSE              
      CONVERGENCE PROBLEMS OR MISLEADING RESULTS. IF THIS STREAM IS             
      A TEAR, SET TEAR-VAR=YES IN CONV-OPTIONS TO CAUSE IT TO BE                
      CONVERGED. OTHERWISE, PLEASE CHECK THE LOCATION OF FORTRAN                
      BLOCK H2-RELAV     IN THE SEQUENCE AND CONSIDER MOVING                    
      IT BY USING THE 'EXECUTE' KEYWORD OR OTHER METHODS.                       

      BLOCK $OLVER02 (METHOD: SECANT  ) HAS BEEN DEFINED TO CONVERGE
                SPECS : MAKEUPH2

      COMPUTATION ORDER FOR THE FLOWSHEET IS:
      U-1 U-2 B5 B4 B3 B1 01PUMP 
      $OLVER01 23SEP 25PSA 24VALVE 26DISTIL 27DISTIL HEAT-INT 09HEX 
      |  03HEX 04HEX 10HEX 02HEX 11HEX 12VALVE 13SEP 15ABS 
      |  $OLVER02 28COMP 29MIXER 30SPLIT 31COMP H2-RELAV 
      |  (RETURN $OLVER02) 
      |  05HDO-RE 06REQUIL 08MIXER 07SPLIT 20HEX 17HCC-RE 15HEX 19HEX 
      |  21HEX 18HEX 14HEX 22HEX 
      (RETURN $OLVER01) 
      32VALVE COMB-REL 33MIXER 34COMB 35HEX 36SPLIT 

Calculations begin                                                              time      0.28


 SIMULATION CALCULATIONS BEGIN                                                    TIME =      0.28

      UTILITY BLOCK U-1      MODEL: GENERAL                                       TIME =      0.28
      HEATING/COOLING VALUE     6.000000D+05 J/KG

      UTILITY BLOCK U-2      MODEL: GENERAL                                       TIME =      0.28
      KODE = 2  NTRIAL =   1  T = 305.1500  P =  101325.      V =  0.00000      Q =  0.00000    
      KODE = 3  NTRIAL =   4  T = 373.1407  P =  101325.      V =  0.00000      Q = 5.124586E+06
      KODE = 2  NTRIAL =   1  T = 310.1500  P =  101325.      V =  0.00000      Q =  0.00000    
      KODE = 3  NTRIAL =   4  T = 373.1407  P =  101325.      V =  0.00000      Q = 4.748771E+06
      HEATING/COOLING VALUE    -2.086094D+04 J/KG

      ENTHALPY CALCULATION FOR INLET STREAM 03-ED2 OF BLOCK B5                    TIME =      0.28
      KODE = 2  NTRIAL =   2  T = 394.7670  P = 9.200000E+06  V =  0.00000      Q =  0.00000    

      UOS BLOCK B5       MODEL: HEATER                                            TIME =      0.28
      KODE = 2  NTRIAL =   2  T = 630.3287  P = 9.200000E+06  V =  0.00000      Q = 6.643980E+06

      ENTHALPY CALCULATION FOR INLET STREAM S5 OF BLOCK B4                        TIME =      0.28
      KODE = 2  NTRIAL =   0  T = 693.1500  P = 1.500000E+06  V =  1.00000      Q =  0.00000    

      UOS BLOCK B4       MODEL: COMPR                                             TIME =      0.28
      OUTLET TEMP =   514.1       OUTLET PRES =  0.3000E+06   INDICATED HP = -0.8018E+06   BRAKE HP = -0.8018E+06
      ISENTR TEMP =   475.6      CALC ISENTR EFF =  0.8200      ISENTR HP = -0.9778E+06  HP = -0.1030E+06

      ENTHALPY CALCULATION FOR INLET STREAM S3 OF BLOCK B3                        TIME =      0.28
      KODE = 2  NTRIAL =   0  T = 298.1500  P =  101325.      V =  1.00000      Q =  0.00000    

      UOS BLOCK B3       MODEL: COMPR                                             TIME =      0.28
      OUTLET TEMP =   316.4       OUTLET PRES =  0.1150E+06   INDICATED HP =  0.5125E+05   BRAKE HP =  0.5125E+05
      ISENTR TEMP =   309.1      CALC ISENTR EFF =  0.6000      ISENTR HP =  0.3075E+05  HP =   4935.    

      ENTHALPY CALCULATION FOR INLET STREAM 11-ED OF BLOCK B1                     TIME =      0.28
      KODE = 2  NTRIAL =  14  T = 670.4060  P = 9.200000E+06  V = 0.498437      Q =  0.00000    

      ENTHALPY CALCULATION FOR INLET STREAM 03-ED OF BLOCK B1                     TIME =      0.28
      KODE = 2  NTRIAL =   2  T = 394.7670  P = 9.200000E+06  V =  0.00000      Q =  0.00000    

      UOS BLOCK B1       MODEL: HEATX                                             TIME =      0.28
      SPECIFICATION: COLD OUTLET TEMP      630.33    
      FLOW TYPE:     COUNTERCURRENT  
      HOT:  TIN=  670.40  PIN=0.92000E+07   TOUT=  499.70  POUT=0.92000E+07
      COLD: TIN=  394.77  PIN=0.92000E+07   TOUT=  630.33  POUT=0.92000E+07
                              DUTY=0.66440E+07

      ENTHALPY CALCULATION FOR INLET STREAM 01 OF BLOCK 01PUMP                    TIME =      0.28
      KODE = 2  NTRIAL =   3  T = 298.1500  P =  101325.      V =  0.00000      Q =  0.00000    

      UOS BLOCK 01PUMP   MODEL: PUMP                                              TIME =      0.28
      VOL-FLOW   =  0.1266E-01 , DELTA P    =  0.9099E+07 , PUMP EFF   =  0.8500    
      FLUID PWR  =  0.1152E+06 , BRAKE PWR  =  0.1355E+06 , ELEC PWR   =  0.1355E+06

      CONVERGENCE BLOCK $OLVER01  METHOD: WEGSTEIN                                TIME =      0.28
      ITER   0 For Tear Streams: 10        36        03        22        27
                                 28        24

      ENTHALPY CALCULATION FOR INLET STREAM 36 OF BLOCK 23SEP                     TIME =      0.28
      KODE = 2  NTRIAL =   4  T = 313.1500  P = 9.000000E+06  V =  1.00000      Q =  0.00000    

      ENTHALPY CALCULATION FOR INLET STREAM 03 OF BLOCK 03HEX                     TIME =      0.28
      KODE = 2  NTRIAL =   2  T = 394.7670  P = 9.200000E+06  V =  0.00000      Q =  0.00000    

      UOS BLOCK 23SEP    MODEL: SEP                                               TIME =      0.28
      ---FLASH OUTLET STREAM 37      :
      KODE = 2  NTRIAL =   4  T = 313.1500  P = 9.000000E+06  V =  1.00000      Q =  0.00000    
      ---FLASH OUTLET STREAM 38      :
      KODE = 2  NTRIAL =   2  T = 313.1500  P = 9.000000E+06  V =  0.00000      Q =  0.00000    

      UOS BLOCK 25PSA    MODEL: SEP                                               TIME =      0.28
      ---FLASH OUTLET STREAM 47      :
      KODE = 2  NTRIAL =   0  T = 313.1500  P = 9.000000E+06  V =  1.00000      Q =  0.00000    
      ---FLASH OUTLET STREAM 44      :
      KODE = 2  NTRIAL =   2  T = 313.1500  P = 9.000000E+06  V =  1.00000      Q =  0.00000    

      UOS BLOCK 24VALVE  MODEL: VALVE                                             TIME =      0.28
      NO. TEMP ITER =    4     TEMP =  316.589    
      KODE = 1  NTRIAL =   2  T = 316.5891  P =  101325.      V =  0.00000      Q =  0.00000    
      OUTLET PRES =   0.1013E+06 PRES DROP =   0.8899E+07

      UOS BLOCK 26DISTIL MODEL: RADFRAC                                           TIME =      0.28

  *** SEVERE ERROR WHILE EXECUTING UNIT OPERATIONS BLOCK: "26DISTIL" (MODEL:    
      "RADFRAC")                                               (UDL03A.7800)    
      COLUMN NOT IN MASS BALANCE.                                               
      CHECK FEEDS, PRODUCTS, AND COL-SPECS SKWS.                                

      FILLING OUTLET STREAMS BASED ON VAPOR/LIQUID SPLIT FROM
      COMPOSITE FEED FLASH.

  *   WARNING WHILE EXECUTING UNIT OPERATIONS BLOCK: "26DISTIL" (MODEL:         
      "RADFRAC")                                               (UDL3II.7200)    
      REST OF BLOCK BYPASSED DUE TO SEVERE ERROR.                               

      UOS BLOCK 27DISTIL MODEL: RADFRAC                                           TIME =      0.29

  *   WARNING WHILE EXECUTING UNIT OPERATIONS BLOCK: "27DISTIL" (MODEL:         
      "RADFRAC")                                               (UDL3II.7060)    
      ZERO FEED - BLOCK BYPASSED.                                               

      CALCULATOR BLOCK HEAT-INT                                                   TIME =      0.29

  *   WARNING WHILE EXECUTING CALCULATOR BLOCK: "HEAT-INT"     (APLX2S.3)       
      SAMPLED VARIABLE "REBHEAT" HAS NOT BEEN CALCULATED.                       
      VALUE IS MISSING.                                                         

  *   WARNING WHILE EXECUTING CALCULATOR BLOCK: "HEAT-INT"     (APLX2S.3)       
      SAMPLED VARIABLE "REB2HEAT" HAS NOT BEEN CALCULATED.                      
      VALUE IS MISSING.                                                         

      UOS BLOCK 09HEX    MODEL: HEATX                                             TIME =      0.29

  *   WARNING WHILE EXECUTING UNIT OPERATIONS BLOCK: "09HEX" (MODEL: "HEATX")   
                                                               (UHE02I.1)       
      AT LEAST ONE FEED HAS ZERO FLOW                                           
      BLOCK BYPASSED                                                            

      UOS BLOCK 03HEX    MODEL: HEATX                                             TIME =      0.29

  *   WARNING WHILE EXECUTING UNIT OPERATIONS BLOCK: "03HEX" (MODEL: "HEATX")   
                                                               (UHE02I.1)       
      AT LEAST ONE FEED HAS ZERO FLOW                                           
      BLOCK BYPASSED                                                            

      UOS BLOCK 04HEX    MODEL: HEATER                                            TIME =      0.29
      KODE = 2  NTRIAL =   2  T = 673.1500  P = 9.200000E+06  V =  0.00000      Q = 8.031143E+06

      UOS BLOCK 10HEX    MODEL: HEATX                                             TIME =      0.29

  *   WARNING WHILE EXECUTING UNIT OPERATIONS BLOCK: "10HEX" (MODEL: "HEATX")   
                                                               (UHE02I.1)       
      AT LEAST ONE FEED HAS ZERO FLOW                                           
      BLOCK BYPASSED                                                            

      UOS BLOCK 02HEX    MODEL: HEATX                                             TIME =      0.29

  *   WARNING WHILE EXECUTING UNIT OPERATIONS BLOCK: "02HEX" (MODEL: "HEATX")   
                                                               (UHE02I.1)       
      AT LEAST ONE FEED HAS ZERO FLOW                                           
      BLOCK BYPASSED                                                            

      UOS BLOCK 11HEX    MODEL: HEATER                                            TIME =      0.29

  *   WARNING WHILE EXECUTING UNIT OPERATIONS BLOCK: "11HEX" (MODEL: "HEATER")  
[...]
      KODE = 1  NTRIAL =   5  T = 427.4199  P = 3.548704E+06  V = 0.974960      Q =  0.00000    
      KODE = 1  NTRIAL =   5  T = 425.3756  P = 3.548704E+06  V = 0.974445      Q =  0.00000    
      KODE = 1  NTRIAL =   5  T = 423.3297  P = 3.548704E+06  V = 0.973926      Q =  0.00000    
      KODE = 1  NTRIAL =   5  T = 421.2821  P = 3.548704E+06  V = 0.973404      Q =  0.00000    
      KODE = 1  NTRIAL =   5  T = 419.2327  P = 3.548704E+06  V = 0.972879      Q =  0.00000    
      KODE = 1  NTRIAL =   5  T = 417.1814  P = 3.548704E+06  V = 0.972350      Q =  0.00000    
      KODE = 1  NTRIAL =   5  T = 415.1281  P = 3.548704E+06  V = 0.971819      Q =  0.00000    
      KODE = 1  NTRIAL =   5  T = 413.0726  P = 3.548704E+06  V = 0.971285      Q =  0.00000    
      KODE = 1  NTRIAL =   5  T = 411.0148  P = 3.548704E+06  V = 0.970748      Q =  0.00000    
      KODE = 1  NTRIAL =   5  T = 408.9546  P = 3.548704E+06  V = 0.970209      Q =  0.00000    
      KODE = 1  NTRIAL =   5  T = 406.8918  P = 3.548704E+06  V = 0.969668      Q =  0.00000    
      KODE = 1  NTRIAL =   5  T = 404.8263  P = 3.548704E+06  V = 0.969124      Q =  0.00000    

      BEGIN COLD-TQCURVE INLET   

      BEGIN HOT-TQCURVE  INLET   
      END HEATX TQ-CURVE CALCULATIONS FOR BLOCK 18HEX   

      GENERATING RESULTS FOR UOS BLOCK 19HEX    MODEL: HEATX                      TIME =      0.79
      SPECIFICATION: COLD OUTLET TEMP      511.42    
      FLOW TYPE:     COUNTERCURRENT  
      HOT:  TIN=  535.09  PIN=0.35487E+07   TOUT=  481.41  POUT=0.35487E+07
      COLD: TIN=  399.82  PIN=0.35487E+07   TOUT=  511.42  POUT=0.35487E+07
      AREA= 100.81           DUTY=0.39153E+07       FT=1.00000

      BEGIN HEATX TQ-CURVE CALCULATIONS FOR BLOCK 19HEX   

      BEGIN COLD-TQCURVE INLET   
      NO. TEMP ITER =   12     TEMP =  511.425    
      KODE = 1  NTRIAL =   0  T = 511.4249  P = 3.548704E+06  V =  1.00000      Q =  0.00000    
      NO. TEMP ITER =   12     TEMP =  506.113    
      KODE = 1  NTRIAL =   0  T = 506.1126  P = 3.548704E+06  V =  1.00000      Q =  0.00000    
      NO. TEMP ITER =   12     TEMP =  500.800    
      KODE = 1  NTRIAL =   0  T = 500.8003  P = 3.548704E+06  V =  1.00000      Q =  0.00000    
      NO. TEMP ITER =   12     TEMP =  495.488    
      KODE = 1  NTRIAL =   0  T = 495.4881  P = 3.548704E+06  V =  1.00000      Q =  0.00000    
      NO. TEMP ITER =   12     TEMP =  490.176    
      KODE = 1  NTRIAL =   0  T = 490.1760  P = 3.548704E+06  V =  1.00000      Q =  0.00000    
      NO. TEMP ITER =   12     TEMP =  484.864    
      KODE = 1  NTRIAL =   0  T = 484.8639  P = 3.548704E+06  V =  1.00000      Q =  0.00000    
      NO. TEMP ITER =   12     TEMP =  479.552    
      KODE = 1  NTRIAL =   0  T = 479.5518  P = 3.548704E+06  V =  1.00000      Q =  0.00000    
      NO. TEMP ITER =   12     TEMP =  474.240    
      KODE = 1  NTRIAL =   0  T = 474.2397  P = 3.548704E+06  V =  1.00000      Q =  0.00000    
      NO. TEMP ITER =   12     TEMP =  468.927    
      KODE = 1  NTRIAL =   0  T = 468.9274  P = 3.548704E+06  V =  1.00000      Q =  0.00000    
      NO. TEMP ITER =   12     TEMP =  463.615    
      KODE = 1  NTRIAL =   0  T = 463.6150  P = 3.548704E+06  V =  1.00000      Q =  0.00000    
      NO. TEMP ITER =   12     TEMP =  458.302    
      KODE = 1  NTRIAL =   0  T = 458.3023  P = 3.548704E+06  V =  1.00000      Q =  0.00000    
      NO. TEMP ITER =   12     TEMP =  452.989    
      KODE = 1  NTRIAL =   0  T = 452.9893  P = 3.548704E+06  V =  1.00000      Q =  0.00000    
      NO. TEMP ITER =   12     TEMP =  447.676    
      KODE = 1  NTRIAL =   0  T = 447.6760  P = 3.548704E+06  V =  1.00000      Q =  0.00000    
      NO. TEMP ITER =   12     TEMP =  442.362    
      KODE = 1  NTRIAL =   0  T = 442.3621  P = 3.548704E+06  V =  1.00000      Q =  0.00000    
      NO. TEMP ITER =   12     TEMP =  437.048    
      KODE = 1  NTRIAL =   0  T = 437.0478  P = 3.548704E+06  V =  1.00000      Q =  0.00000    
      NO. TEMP ITER =   12     TEMP =  431.733    
      KODE = 1  NTRIAL =   0  T = 431.7328  P = 3.548704E+06  V =  1.00000      Q =  0.00000    
      NO. TEMP ITER =   12     TEMP =  426.417    
      KODE = 1  NTRIAL =   0  T = 426.4170  P = 3.548704E+06  V =  1.00000      Q =  0.00000    
      NO. TEMP ITER =   12     TEMP =  421.100    
      KODE = 1  NTRIAL =   0  T = 421.1005  P = 3.548704E+06  V =  1.00000      Q =  0.00000    
      NO. TEMP ITER =   12     TEMP =  415.783    
      KODE = 1  NTRIAL =   0  T = 415.7829  P = 3.548704E+06  V =  1.00000      Q =  0.00000    
      NO. TEMP ITER =   12     TEMP =  410.464    
      KODE = 1  NTRIAL =   0  T = 410.4643  P = 3.548704E+06  V =  1.00000      Q =  0.00000    
      NO. TEMP ITER =   12     TEMP =  405.145    
      KODE = 1  NTRIAL =   0  T = 405.1445  P = 3.548704E+06  V =  1.00000      Q =  0.00000    
      NO. TEMP ITER =   12     TEMP =  399.823    
      KODE = 1  NTRIAL =   0  T = 399.8234  P = 3.548704E+06  V =  1.00000      Q =  0.00000    

      BEGIN HOT-TQCURVE  INLET   
      NO. TEMP ITER =    4     TEMP =  535.090    
      KODE = 1  NTRIAL =   4  T = 535.0901  P = 3.548704E+06  V =  1.00000      Q =  0.00000    
      NO. TEMP ITER =    4     TEMP =  531.978    
      KODE = 1  NTRIAL =   4  T = 531.9776  P = 3.548704E+06  V =  1.00000      Q =  0.00000    
      NO. TEMP ITER =    4     TEMP =  528.860    
      KODE = 1  NTRIAL =   4  T = 528.8600  P = 3.548704E+06  V =  1.00000      Q =  0.00000    
      KODE = 1  NTRIAL =  12  T = 525.7765  P = 3.548704E+06  V = 0.999960      Q =  0.00000    
      KODE = 3  NTRIAL =   8  T = 525.8842  P = 3.548704E+06  V =  1.00000      Q = -550548.    
      KODE = 1  NTRIAL =   8  T = 525.7765  P = 3.548704E+06  V = 0.999960      Q =  0.00000    
      KODE = 1  NTRIAL =   4  T = 523.4797  P = 3.548704E+06  V = 0.999124      Q =  0.00000    
      KODE = 1  NTRIAL =   4  T = 521.1609  P = 3.548704E+06  V = 0.998310      Q =  0.00000    
      KODE = 1  NTRIAL =   4  T = 518.8204  P = 3.548704E+06  V = 0.997517      Q =  0.00000    
      KODE = 1  NTRIAL =   4  T = 516.4585  P = 3.548704E+06  V = 0.996743      Q =  0.00000    
      KODE = 1  NTRIAL =   5  T = 514.0754  P = 3.548704E+06  V = 0.995990      Q =  0.00000    
      KODE = 1  NTRIAL =   5  T = 511.6714  P = 3.548704E+06  V = 0.995255      Q =  0.00000    
      KODE = 1  NTRIAL =   5  T = 509.2470  P = 3.548704E+06  V = 0.994537      Q =  0.00000    
      KODE = 1  NTRIAL =   5  T = 506.8027  P = 3.548704E+06  V = 0.993836      Q =  0.00000    
      KODE = 1  NTRIAL =   5  T = 504.3391  P = 3.548704E+06  V = 0.993151      Q =  0.00000    
      KODE = 1  NTRIAL =   5  T = 501.8566  P = 3.548704E+06  V = 0.992481      Q =  0.00000    
      KODE = 1  NTRIAL =   5  T = 499.3561  P = 3.548704E+06  V = 0.991824      Q =  0.00000    
      KODE = 1  NTRIAL =   5  T = 496.8382  P = 3.548704E+06  V = 0.991179      Q =  0.00000    
      KODE = 1  NTRIAL =   5  T = 494.3037  P = 3.548704E+06  V = 0.990545      Q =  0.00000    
      KODE = 1  NTRIAL =   5  T = 491.7534  P = 3.548704E+06  V = 0.989922      Q =  0.00000    
      KODE = 1  NTRIAL =   5  T = 489.1882  P = 3.548704E+06  V = 0.989307      Q =  0.00000    
      KODE = 1  NTRIAL =   5  T = 486.6090  P = 3.548704E+06  V = 0.988699      Q =  0.00000    
      KODE = 1  NTRIAL =   5  T = 484.0167  P = 3.548704E+06  V = 0.988097      Q =  0.00000    
      KODE = 1  NTRIAL =   5  T = 481.4122  P = 3.548704E+06  V = 0.987500      Q =  0.00000    

      BEGIN COLD-TQCURVE INLET   
      NO. TEMP ITER =   12     TEMP =  495.738    
      KODE = 1  NTRIAL =   0  T = 495.7384  P = 3.548704E+06  V =  1.00000      Q =  0.00000    

      BEGIN HOT-TQCURVE  INLET   
      END HEATX TQ-CURVE CALCULATIONS FOR BLOCK 19HEX   

      GENERATING RESULTS FOR UOS BLOCK 15HEX    MODEL: HEATX                      TIME =      0.80
      SPECIFICATION: COLD OUTLET TEMP      579.02    
      FLOW TYPE:     COUNTERCURRENT  
      HOT:  TIN=  583.15  PIN=0.35487E+07   TOUT=  535.09  POUT=0.35487E+07
      COLD: TIN=  475.05  PIN=0.35487E+07   TOUT=  579.02  POUT=0.35487E+07
      AREA= 164.37           DUTY=0.29177E+07       FT=1.00000

      BEGIN HEATX TQ-CURVE CALCULATIONS FOR BLOCK 15HEX   

      BEGIN COLD-TQCURVE INLET   
      NO. TEMP ITER =    6     TEMP =  579.022    
      KODE = 1  NTRIAL =   4  T = 579.0219  P = 3.548704E+06  V =  0.00000      Q =  0.00000    
      NO. TEMP ITER =    5     TEMP =  574.398    
      KODE = 1  NTRIAL =   4  T = 574.3978  P = 3.548704E+06  V =  0.00000      Q =  0.00000    
      NO. TEMP ITER =    5     TEMP =  569.746    
      KODE = 1  NTRIAL =   4  T = 569.7456  P = 3.548704E+06  V =  0.00000      Q =  0.00000    
      NO. TEMP ITER =    5     TEMP =  565.065    
      KODE = 1  NTRIAL =   4  T = 565.0649  P = 3.548704E+06  V =  0.00000      Q =  0.00000    
      NO. TEMP ITER =    5     TEMP =  560.355    
      KODE = 1  NTRIAL =   4  T = 560.3551  P = 3.548704E+06  V =  0.00000      Q =  0.00000    
      NO. TEMP ITER =    5     TEMP =  555.615    
      KODE = 1  NTRIAL =   4  T = 555.6154  P = 3.548704E+06  V =  0.00000      Q =  0.00000    
      NO. TEMP ITER =    5     TEMP =  550.845    
      KODE = 1  NTRIAL =   4  T = 550.8452  P = 3.548704E+06  V =  0.00000      Q =  0.00000    
      NO. TEMP ITER =    5     TEMP =  546.044    
      KODE = 1  NTRIAL =   4  T = 546.0438  P = 3.548704E+06  V =  0.00000      Q =  0.00000    
      NO. TEMP ITER =    6     TEMP =  541.211    
      KODE = 1  NTRIAL =   4  T = 541.2105  P = 3.548704E+06  V =  0.00000      Q =  0.00000    
      NO. TEMP ITER =    6     TEMP =  536.344    
      KODE = 1  NTRIAL =   4  T = 536.3444  P = 3.548704E+06  V =  0.00000      Q =  0.00000    
      NO. TEMP ITER =    6     TEMP =  531.445    
      KODE = 1  NTRIAL =   4  T = 531.4448  P = 3.548704E+06  V =  0.00000      Q =  0.00000    
      NO. TEMP ITER =    6     TEMP =  526.511    
      KODE = 1  NTRIAL =   4  T = 526.5107  P = 3.548704E+06  V =  0.00000      Q =  0.00000    
      NO. TEMP ITER =    6     TEMP =  521.541    
      KODE = 1  NTRIAL =   4  T = 521.5413  P = 3.548704E+06  V =  0.00000      Q =  0.00000    
      NO. TEMP ITER =    6     TEMP =  516.536    
      KODE = 1  NTRIAL =   4  T = 516.5356  P = 3.548704E+06  V =  0.00000      Q =  0.00000    
      NO. TEMP ITER =    6     TEMP =  511.493    
      KODE = 1  NTRIAL =   4  T = 511.4926  P = 3.548704E+06  V =  0.00000      Q =  0.00000    
      NO. TEMP ITER =    6     TEMP =  506.411    
      KODE = 1  NTRIAL =   4  T = 506.4113  P = 3.548704E+06  V =  0.00000      Q =  0.00000    
      NO. TEMP ITER =    6     TEMP =  501.291    
      KODE = 1  NTRIAL =   4  T = 501.2905  P = 3.548704E+06  V =  0.00000      Q =  0.00000    
      NO. TEMP ITER =    6     TEMP =  496.129    
      KODE = 1  NTRIAL =   4  T = 496.1292  P = 3.548704E+06  V =  0.00000      Q =  0.00000    
      NO. TEMP ITER =    6     TEMP =  490.926    
      KODE = 1  NTRIAL =   4  T = 490.9261  P = 3.548704E+06  V =  0.00000      Q =  0.00000    
      NO. TEMP ITER =    6     TEMP =  485.680    
      KODE = 1  NTRIAL =   4  T = 485.6799  P = 3.548704E+06  V =  0.00000      Q =  0.00000    
      NO. TEMP ITER =    6     TEMP =  480.389    
      KODE = 1  NTRIAL =   4  T = 480.3893  P = 3.548704E+06  V =  0.00000      Q =  0.00000    
      NO. TEMP ITER =    6     TEMP =  475.053    
      KODE = 1  NTRIAL =   4  T = 475.0528  P = 3.548704E+06  V =  0.00000      Q =  0.00000    

      BEGIN HOT-TQCURVE  INLET   
      NO. TEMP ITER =    5     TEMP =  583.150    
      KODE = 1  NTRIAL =  10  T = 583.1500  P = 3.548704E+06  V =  1.00000      Q =  0.00000    
      NO. TEMP ITER =    5     TEMP =  580.888    
      KODE = 1  NTRIAL =   6  T = 580.8877  P = 3.548704E+06  V =  1.00000      Q =  0.00000    
      NO. TEMP ITER =    5     TEMP =  578.623    
      KODE = 1  NTRIAL =   6  T = 578.6229  P = 3.548704E+06  V =  1.00000      Q =  0.00000    
      NO. TEMP ITER =    5     TEMP =  576.356    
      KODE = 1  NTRIAL =   6  T = 576.3556  P = 3.548704E+06  V =  1.00000      Q =  0.00000    
      NO. TEMP ITER =    5     TEMP =  574.086    
      KODE = 1  NTRIAL =   6  T = 574.0857  P = 3.548704E+06  V =  1.00000      Q =  0.00000    
      NO. TEMP ITER =    5     TEMP =  571.813    
      KODE = 1  NTRIAL =   6  T = 571.8133  P = 3.548704E+06  V =  1.00000      Q =  0.00000    
      NO. TEMP ITER =    5     TEMP =  569.538    
      KODE = 1  NTRIAL =   6  T = 569.5383  P = 3.548704E+06  V =  1.00000      Q =  0.00000    
      NO. TEMP ITER =    4     TEMP =  567.261    
      KODE = 1  NTRIAL =   6  T = 567.2606  P = 3.548704E+06  V =  1.00000      Q =  0.00000    
      NO. TEMP ITER =    4     TEMP =  564.980    
      KODE = 1  NTRIAL =   5  T = 564.9804  P = 3.548704E+06  V =  1.00000      Q =  0.00000    
      NO. TEMP ITER =    4     TEMP =  562.697    
      KODE = 1  NTRIAL =   5  T = 562.6974  P = 3.548704E+06  V =  1.00000      Q =  0.00000    
      NO. TEMP ITER =    4     TEMP =  560.412    
      KODE = 1  NTRIAL =   5  T = 560.4119  P = 3.548704E+06  V =  1.00000      Q =  0.00000    
      NO. TEMP ITER =    4     TEMP =  558.124    
      KODE = 1  NTRIAL =   5  T = 558.1237  P = 3.548704E+06  V =  1.00000      Q =  0.00000    
      NO. TEMP ITER =    4     TEMP =  555.833    
      KODE = 1  NTRIAL =   5  T = 555.8327  P = 3.548704E+06  V =  1.00000      Q =  0.00000    
      NO. TEMP ITER =    4     TEMP =  553.539    
      KODE = 1  NTRIAL =   5  T = 553.5391  P = 3.548704E+06  V =  1.00000      Q =  0.00000    
      NO. TEMP ITER =    4     TEMP =  551.243    
      KODE = 1  NTRIAL =   5  T = 551.2427  P = 3.548704E+06  V =  1.00000      Q =  0.00000    
      NO. TEMP ITER =    4     TEMP =  548.944    
      KODE = 1  NTRIAL =   5  T = 548.9436  P = 3.548704E+06  V =  1.00000      Q =  0.00000    
      NO. TEMP ITER =    4     TEMP =  546.642    
      KODE = 1  NTRIAL =   5  T = 546.6417  P = 3.548704E+06  V =  1.00000      Q =  0.00000    
      NO. TEMP ITER =    4     TEMP =  544.337    
      KODE = 1  NTRIAL =   4  T = 544.3370  P = 3.548704E+06  V =  1.00000      Q =  0.00000    
      NO. TEMP ITER =    4     TEMP =  542.030    
      KODE = 1  NTRIAL =   4  T = 542.0296  P = 3.548704E+06  V =  1.00000      Q =  0.00000    
      NO. TEMP ITER =    4     TEMP =  539.719    
      KODE = 1  NTRIAL =   4  T = 539.7193  P = 3.548704E+06  V =  1.00000      Q =  0.00000    
      NO. TEMP ITER =    4     TEMP =  537.406    
      KODE = 1  NTRIAL =   4  T = 537.4061  P = 3.548704E+06  V =  1.00000      Q =  0.00000    
      NO. TEMP ITER =    4     TEMP =  535.090    
      KODE = 1  NTRIAL =   4  T = 535.0901  P = 3.548704E+06  V =  1.00000      Q =  0.00000    

      BEGIN COLD-TQCURVE INLET   

      BEGIN HOT-TQCURVE  INLET   
      END HEATX TQ-CURVE CALCULATIONS FOR BLOCK 15HEX   

      CHECKING PHASE EQUILIBRIUM RESULTS                                          TIME =      0.82

      CHECKING PHASE EQUILIBRIUM RESULTS                                          TIME =      0.82

      BEGIN HEATX TQ-CURVE REPORT FOR BLOCK 18HEX   

      BEGIN COLD-TQCURVE INLET   

      BEGIN HOT-TQCURVE  INLET   
      END HEATX TQ-CURVE REPORT FOR BLOCK 18HEX   

      BEGIN HEATX TQ-CURVE REPORT FOR BLOCK 15HEX   

      BEGIN COLD-TQCURVE INLET   

      BEGIN HOT-TQCURVE  INLET   
      END HEATX TQ-CURVE REPORT FOR BLOCK 15HEX   

      BEGIN HEATX TQ-CURVE REPORT FOR BLOCK 19HEX   

      BEGIN COLD-TQCURVE INLET   

      BEGIN HOT-TQCURVE  INLET   
      END HEATX TQ-CURVE REPORT FOR BLOCK 19HEX   

 Report Writer entered                                                            Time =      6.48

      BEGIN HEATX TQ-CURVE REPORT FOR BLOCK 02HEX   

      BEGIN COLD-TQCURVE INLET   

      BEGIN HOT-TQCURVE  INLET   
      END HEATX TQ-CURVE REPORT FOR BLOCK 02HEX   

      BEGIN HEATX TQ-CURVE REPORT FOR BLOCK 03HEX   

      BEGIN COLD-TQCURVE INLET   

      BEGIN HOT-TQCURVE  INLET   
      END HEATX TQ-CURVE REPORT FOR BLOCK 03HEX   

      BEGIN HEATX TQ-CURVE REPORT FOR BLOCK 09HEX   

      BEGIN COLD-TQCURVE INLET   

      BEGIN HOT-TQCURVE  INLET   
      END HEATX TQ-CURVE REPORT FOR BLOCK 09HEX   

      BEGIN HEATX TQ-CURVE REPORT FOR BLOCK 10HEX   

      BEGIN COLD-TQCURVE INLET   

      BEGIN HOT-TQCURVE  INLET   
      END HEATX TQ-CURVE REPORT FOR BLOCK 10HEX   

      BEGIN HEATX TQ-CURVE REPORT FOR BLOCK 14HEX   

      BEGIN COLD-TQCURVE INLET   

      BEGIN HOT-TQCURVE  INLET   
      END HEATX TQ-CURVE REPORT FOR BLOCK 14HEX   

      BEGIN HEATX TQ-CURVE REPORT FOR BLOCK 15HEX   

      BEGIN COLD-TQCURVE INLET   

      BEGIN HOT-TQCURVE  INLET   
      END HEATX TQ-CURVE REPORT FOR BLOCK 15HEX   

      BEGIN HEATX TQ-CURVE REPORT FOR BLOCK 18HEX   

      BEGIN COLD-TQCURVE INLET   

      BEGIN HOT-TQCURVE  INLET   
      END HEATX TQ-CURVE REPORT FOR BLOCK 18HEX   

      BEGIN HEATX TQ-CURVE REPORT FOR BLOCK 19HEX   

      BEGIN COLD-TQCURVE INLET   

      BEGIN HOT-TQCURVE  INLET   
      END HEATX TQ-CURVE REPORT FOR BLOCK 19HEX   

      BEGIN HEATX TQ-CURVE REPORT FOR BLOCK B1      

      BEGIN COLD-TQCURVE INLET   

      BEGIN HOT-TQCURVE  INLET   
      END HEATX TQ-CURVE REPORT FOR BLOCK B1      

 Results generated                                                                Time =      6.57

 Report Writer entered                                                            Time =      6.95

      BEGIN HEATX TQ-CURVE REPORT FOR BLOCK 02HEX   

      BEGIN COLD-TQCURVE INLET   

      BEGIN HOT-TQCURVE  INLET   
      END HEATX TQ-CURVE REPORT FOR BLOCK 02HEX   

      BEGIN HEATX TQ-CURVE REPORT FOR BLOCK 03HEX   

      BEGIN COLD-TQCURVE INLET   

      BEGIN HOT-TQCURVE  INLET   
      END HEATX TQ-CURVE REPORT FOR BLOCK 03HEX   

      BEGIN HEATX TQ-CURVE REPORT FOR BLOCK 09HEX   

      BEGIN COLD-TQCURVE INLET   

      BEGIN HOT-TQCURVE  INLET   
      END HEATX TQ-CURVE REPORT FOR BLOCK 09HEX   

      BEGIN HEATX TQ-CURVE REPORT FOR BLOCK 10HEX   

      BEGIN COLD-TQCURVE INLET   

      BEGIN HOT-TQCURVE  INLET   
      END HEATX TQ-CURVE REPORT FOR BLOCK 10HEX   

      BEGIN HEATX TQ-CURVE REPORT FOR BLOCK 14HEX   

      BEGIN COLD-TQCURVE INLET   

      BEGIN HOT-TQCURVE  INLET   
      END HEATX TQ-CURVE REPORT FOR BLOCK 14HEX   

      BEGIN HEATX TQ-CURVE REPORT FOR BLOCK 15HEX   

      BEGIN COLD-TQCURVE INLET   

      BEGIN HOT-TQCURVE  INLET   
      END HEATX TQ-CURVE REPORT FOR BLOCK 15HEX   

      BEGIN HEATX TQ-CURVE REPORT FOR BLOCK 18HEX   

      BEGIN COLD-TQCURVE INLET   

      BEGIN HOT-TQCURVE  INLET   
      END HEATX TQ-CURVE REPORT FOR BLOCK 18HEX   

      BEGIN HEATX TQ-CURVE REPORT FOR BLOCK 19HEX   

      BEGIN COLD-TQCURVE INLET   

      BEGIN HOT-TQCURVE  INLET   
      END HEATX TQ-CURVE REPORT FOR BLOCK 19HEX   

      BEGIN HEATX TQ-CURVE REPORT FOR BLOCK B1      

      BEGIN COLD-TQCURVE INLET   

      BEGIN HOT-TQCURVE  INLET   
      END HEATX TQ-CURVE REPORT FOR BLOCK B1      

 Results generated                                                                Time =      7.04

RUN SAVED



 *** SUMMARY OF ERRORS ***

                  PHYSICAL
                  PROPERTY  SYSTEM  SIMULATION
 TERMINAL ERRORS      0        0         0
   SEVERE ERRORS      0        0         2
          ERRORS      0        0        12
        WARNINGS      1        0       150
